Version 4
SHEET 1 1072 680
WIRE 272 -336 272 -352
WIRE 272 -192 272 -256
WIRE 288 -192 272 -192
WIRE -352 -176 -592 -176
WIRE -288 -176 -352 -176
WIRE 272 -176 272 -192
WIRE -288 -160 -320 -160
WIRE -48 -160 -224 -160
WIRE 64 -160 -48 -160
WIRE 224 -160 128 -160
WIRE 288 -128 288 -192
WIRE 288 -128 272 -128
WIRE -320 -80 -320 -160
WIRE -224 -80 -320 -80
WIRE -16 -80 -160 -80
WIRE -352 -16 -352 -176
WIRE 272 0 272 -80
WIRE 464 0 272 0
WIRE 640 0 544 0
WIRE 752 0 640 0
WIRE 1008 0 752 0
WIRE -224 48 -320 48
WIRE -48 48 -48 -160
WIRE -48 48 -160 48
WIRE 640 48 640 0
WIRE 752 48 752 0
WIRE 272 80 272 0
WIRE 288 128 272 128
WIRE -16 160 -16 -80
WIRE -16 160 -224 160
WIRE 64 160 -16 160
WIRE 224 160 128 160
WIRE -320 176 -320 48
WIRE -288 176 -320 176
WIRE -352 192 -352 48
WIRE -288 192 -352 192
WIRE 272 192 272 176
WIRE 288 192 288 128
WIRE 288 192 272 192
WIRE 640 192 640 112
WIRE 752 192 752 128
WIRE 272 240 272 192
WIRE 1008 256 1008 0
WIRE 480 336 -496 336
WIRE 624 336 480 336
WIRE -592 352 -592 -176
WIRE -560 352 -592 352
WIRE -384 368 -496 368
WIRE 480 384 480 336
WIRE 624 384 624 336
WIRE -384 400 -384 368
WIRE 1008 400 1008 336
WIRE 1008 400 672 400
WIRE 1008 432 1008 400
WIRE 752 448 672 448
WIRE 752 480 752 448
WIRE -384 592 -384 480
WIRE 480 592 480 464
WIRE 624 592 624 464
WIRE 752 592 752 560
WIRE 1008 592 1008 512
FLAG 272 240 0
FLAG 272 -352 0
FLAG 640 192 0
FLAG 752 192 0
FLAG 752 592 0
FLAG 624 592 0
FLAG -384 592 0
FLAG 480 592 0
FLAG 1008 592 0
SYMBOL voltage 272 -240 R180
WINDOW 0 24 96 Left 2
WINDOW 3 24 16 Left 2
WINDOW 123 0 0 Left 0
WINDOW 39 0 0 Left 0
SYMATTR InstName V1
SYMATTR Value PULSE(0 1.8 0 1n)
SYMBOL ind 448 16 R270
WINDOW 0 32 56 VTop 2
WINDOW 3 5 56 VBottom 2
SYMATTR InstName L1
SYMATTR Value 0.47µ
SYMATTR SpiceLine Ipk=3.8 Rser=32m
SYMBOL cap 624 48 R0
SYMATTR InstName C1
SYMATTR Value 47µ
SYMATTR SpiceLine Rser=10m Lser=1n
SYMBOL cmosp 224 -80 M180
SYMATTR InstName M1
SYMATTR Value2 l=180n w=100u m=500
SYMBOL cmosn 224 80 R0
SYMATTR InstName M2
SYMATTR Value2 l=180n w=100u m=200
SYMBOL load2 752 48 R0
WINDOW 123 0 0 Left 0
WINDOW 39 0 0 Left 0
SYMATTR InstName I1
SYMATTR Value PULSE(0 100m 200u)
SYMBOL Digital\\and -256 -240 R0
WINDOW 3 -61 61 Left 2
SYMATTR Value Vhigh=1.8,Vlow=0
SYMATTR InstName A1
SYMBOL Digital\\and -256 112 R0
WINDOW 3 -48 62 Left 2
SYMATTR Value Vhigh=1.8,Vlow=0
SYMATTR InstName A2
SYMBOL Digital\\inv -288 -16 R90
WINDOW 3 -78 60 Left 2
SYMATTR Value Vhigh=1.8,Vlow=0
SYMATTR InstName A3
SYMBOL Digital\\inv -160 -16 R180
WINDOW 3 -106 66 Left 2
SYMATTR Value Vhigh=1.8,Vlow=0,Td=10n
SYMATTR InstName A4
SYMBOL Digital\\buf1 -160 112 R180
WINDOW 3 -107 61 Left 2
SYMATTR Value Vhigh=1.8,Vlow=0,Td=10n
SYMATTR InstName A5
SYMBOL Digital\\buf1 64 -224 R0
WINDOW 3 -217 63 Left 2
SYMATTR Value Vhigh=1.8, Vlow=0, Trise = {trf}, Tfall = {trf}
SYMATTR InstName A6
SYMBOL Digital\\buf1 64 96 R0
WINDOW 3 -218 61 Left 2
SYMATTR Value Vhigh=1.8, Vlow=0, Trise = {trf}, Tfall = {trf}
SYMATTR InstName A7
SYMBOL voltage 752 464 R0
WINDOW 123 0 0 Left 0
WINDOW 39 0 0 Left 0
SYMATTR InstName V2
SYMATTR Value PULSE(0 0.7 0 1n)
SYMBOL voltage -384 384 R0
WINDOW 123 0 0 Left 0
WINDOW 39 0 0 Left 0
SYMATTR InstName V3
SYMATTR Value PULSE(0 1.8 0 62.5n 62.5n 0u 125n)
SYMBOL g 624 368 M0
SYMATTR InstName G1
SYMATTR Value 100
SYMBOL Digital\\diffschmtbuf -496 416 R180
WINDOW 3 -99 63 Left 2
SYMATTR Value Vhigh=1.8, Vlow=0, Vt=0
SYMATTR InstName A8
SYMBOL res 464 368 R0
SYMATTR InstName R2
SYMATTR Value 100
SYMBOL res 992 240 R0
SYMATTR InstName R3
SYMATTR Value 10k
SYMBOL res 992 416 R0
SYMATTR InstName R4
SYMATTR Value 10k
TEXT 752 -168 Left 2 !.tran 500u
TEXT 752 -192 Left 2 !.include tsmc018.lib
TEXT 752 -216 Left 2 !.param td 1n
TEXT 752 -240 Left 2 !.param trf 1n
