Version 4
SHEET 1 880 852
WIRE -976 -112 -1120 -112
WIRE -784 -112 -896 -112
WIRE -464 -112 -784 -112
WIRE -416 -112 -464 -112
WIRE -1120 -80 -1120 -112
WIRE -784 -80 -784 -112
WIRE -1168 -64 -1232 -64
WIRE -416 -48 -416 -112
WIRE -1168 48 -1168 -16
WIRE -1120 48 -1120 0
WIRE -784 48 -784 -16
WIRE -416 176 -416 32
WIRE -336 176 -416 176
WIRE -192 176 -272 176
WIRE -192 208 -192 176
WIRE -192 336 -192 288
WIRE -416 384 -416 176
WIRE -1504 480 -1504 400
WIRE -736 608 -736 544
WIRE -1504 624 -1504 560
WIRE -416 640 -416 464
WIRE -416 640 -672 640
WIRE -1232 656 -1232 -64
WIRE -848 672 -1184 672
WIRE -416 672 -416 640
WIRE -560 704 -672 704
WIRE -560 736 -560 704
WIRE -1232 832 -1232 736
WIRE -1184 832 -1184 720
WIRE -736 832 -736 736
WIRE -560 832 -560 816
WIRE -416 832 -416 752
FLAG -1120 48 0
FLAG -1168 48 0
FLAG -1232 832 0
FLAG -1184 832 0
FLAG -736 832 0
FLAG -1504 624 0
FLAG -1504 400 vdd
FLAG -736 544 vdd
FLAG -784 48 0
FLAG -416 832 0
FLAG -560 832 0
FLAG -464 -112 out
FLAG -192 336 0
SYMBOL e -1120 -96 R0
SYMATTR InstName E4
SYMATTR Value 1.8
SYMBOL ind -992 -96 R270
WINDOW 0 32 56 VTop 2
WINDOW 3 5 56 VBottom 2
SYMATTR InstName L3
SYMATTR Value 0.24µ
SYMATTR SpiceLine Rser=32m
SYMBOL cap -800 -80 R0
SYMATTR InstName C2
SYMATTR Value 20µ
SYMBOL e -1232 640 M0
SYMATTR InstName E5
SYMATTR Value 1
SYMBOL Error_Amplifier -752 688 M0
SYMATTR InstName X1
SYMBOL voltage -1504 464 R0
WINDOW 123 0 0 Left 0
WINDOW 39 0 0 Left 0
SYMATTR InstName V1
SYMATTR Value 1.8
SYMBOL res -432 368 R0
SYMATTR InstName R3
SYMATTR Value 100k
SYMBOL res -432 656 R0
SYMATTR InstName R4
SYMATTR Value 100k
SYMBOL voltage -560 720 R0
WINDOW 123 0 0 Left 0
WINDOW 39 0 0 Left 0
SYMATTR InstName V2
SYMATTR Value 0.8
SYMBOL cap -272 160 R90
WINDOW 0 0 32 VBottom 2
WINDOW 3 32 32 VTop 2
SYMATTR InstName C3
SYMATTR Value 1Meg
SYMBOL ind -432 -64 R0
SYMATTR InstName L4
SYMATTR Value 1Meg
SYMBOL voltage -192 192 R0
WINDOW 123 24 124 Left 2
WINDOW 39 0 0 Left 0
SYMATTR Value2 AC 1
SYMATTR InstName V3
SYMATTR Value ""
TEXT -880 288 Left 2 !.ac dec 50 100 1G
TEXT -872 320 Left 2 !.op
