Version 4
SHEET 1 1152 996
WIRE 288 32 144 32
WIRE 480 32 368 32
WIRE 800 32 480 32
WIRE 848 32 800 32
WIRE 144 64 144 32
WIRE 480 64 480 32
WIRE 96 80 32 80
WIRE 848 96 848 32
WIRE 96 192 96 128
WIRE 144 192 144 144
WIRE 480 192 480 128
WIRE 848 320 848 176
WIRE 928 320 848 320
WIRE 1072 320 992 320
WIRE 1072 352 1072 320
WIRE 848 480 848 320
WIRE 848 480 752 480
WIRE 1072 480 1072 432
WIRE 848 528 848 480
WIRE 752 544 752 480
WIRE 352 592 304 592
WIRE 560 592 432 592
WIRE 672 592 624 592
WIRE -240 624 -240 544
WIRE 752 688 752 608
WIRE 848 688 848 608
WIRE 848 688 752 688
WIRE 528 752 528 688
WIRE -240 768 -240 704
WIRE 672 784 672 592
WIRE 672 784 592 784
WIRE 848 784 848 688
WIRE 848 784 672 784
WIRE 32 800 32 80
WIRE 304 816 304 592
WIRE 304 816 80 816
WIRE 416 816 304 816
WIRE 848 816 848 784
WIRE 704 848 592 848
WIRE 704 880 704 848
WIRE 32 976 32 880
WIRE 80 976 80 864
WIRE 528 976 528 880
WIRE 704 976 704 960
WIRE 848 976 848 896
FLAG 144 192 0
FLAG 96 192 0
FLAG 32 976 0
FLAG 80 976 0
FLAG 528 976 0
FLAG -240 768 0
FLAG -240 544 vdd
FLAG 528 688 vdd
FLAG 480 192 0
FLAG 848 976 0
FLAG 704 976 0
FLAG 800 32 out
FLAG 1072 480 0
SYMBOL e 144 48 R0
SYMATTR InstName E1
SYMATTR Value 1.8
SYMBOL ind 272 48 R270
WINDOW 0 32 56 VTop 2
WINDOW 3 5 56 VBottom 2
SYMATTR InstName L1
SYMATTR Value 0.24µ
SYMATTR SpiceLine Rser=32m
SYMBOL cap 464 64 R0
SYMATTR InstName C1
SYMATTR Value 20µ
SYMBOL e 32 784 M0
SYMATTR InstName E2
SYMATTR Value 1
SYMBOL Error_Amplifier 512 832 M0
SYMATTR InstName X1
SYMBOL voltage -240 608 R0
WINDOW 123 0 0 Left 0
WINDOW 39 0 0 Left 0
SYMATTR InstName V1
SYMATTR Value 1.8
SYMBOL res 832 512 R0
SYMATTR InstName R1
SYMATTR Value 100k
SYMBOL res 832 800 R0
SYMATTR InstName R2
SYMATTR Value 100k
SYMBOL voltage 704 864 R0
WINDOW 123 0 0 Left 0
WINDOW 39 0 0 Left 0
SYMATTR InstName V2
SYMATTR Value 0.8
SYMBOL cap 992 304 R90
WINDOW 0 0 32 VBottom 2
WINDOW 3 32 32 VTop 2
SYMATTR InstName C2
SYMATTR Value 1Meg
SYMBOL ind 832 80 R0
SYMATTR InstName L2
SYMATTR Value 1Meg
SYMBOL voltage 1072 336 R0
WINDOW 123 24 124 Left 2
WINDOW 39 0 0 Left 0
SYMATTR InstName V3
SYMATTR Value ""
SYMATTR Value2 AC 1
SYMBOL cap 736 544 R0
SYMATTR InstName C3
SYMATTR Value 22.32p
SYMBOL res 448 576 R90
WINDOW 0 0 56 VBottom 2
WINDOW 3 32 56 VTop 2
SYMATTR InstName R3
SYMATTR Value 507
SYMBOL cap 624 576 R90
WINDOW 0 0 32 VBottom 2
WINDOW 3 32 32 VTop 2
SYMATTR InstName C4
SYMATTR Value 10p
TEXT 384 432 Left 2 !.ac dec 50 100 1G
