Version 4
SHEET 1 880 724
WIRE 224 32 144 32
WIRE 352 32 304 32
WIRE 480 32 432 32
WIRE 144 64 144 32
WIRE 480 64 480 32
WIRE 96 80 32 80
WIRE 480 160 480 128
WIRE 96 192 96 128
WIRE 144 192 144 144
WIRE 480 272 480 240
WIRE 480 400 480 352
WIRE 32 544 32 80
WIRE 416 560 80 560
WIRE 416 576 416 560
WIRE 32 656 32 624
WIRE 80 656 80 608
WIRE 416 688 416 656
WIRE 464 688 464 640
FLAG 144 192 0
FLAG 96 192 0
FLAG 480 400 0
FLAG 32 656 0
FLAG 80 656 0
FLAG 416 688 0
FLAG 464 688 0
SYMBOL e 144 48 R0
SYMATTR InstName E1
SYMATTR Value {Vin}
SYMBOL ind 208 48 R270
WINDOW 0 32 56 VTop 2
WINDOW 3 5 56 VBottom 2
SYMATTR InstName L1
SYMATTR Value 0.47µ
SYMBOL cap 464 64 R0
SYMATTR InstName C1
SYMATTR Value 47µ
SYMBOL res 464 144 R0
SYMATTR InstName R1
SYMATTR Value 10m
SYMBOL ind 464 256 R0
SYMATTR InstName L2
SYMATTR Value 1n
SYMBOL res 448 16 R90
WINDOW 0 0 56 VBottom 2
WINDOW 3 32 56 VTop 2
SYMATTR InstName R2
SYMATTR Value 32m
SYMBOL e 32 528 M0
SYMATTR InstName E2
SYMATTR Value {Vm}
SYMBOL e 416 560 M0
SYMATTR InstName E3
SYMATTR Value 1000
