Version 4
SHEET 1 2400 1024
WIRE 288 32 144 32
WIRE 480 32 368 32
WIRE 800 32 480 32
WIRE 848 32 800 32
WIRE 1536 32 1392 32
WIRE 1728 32 1616 32
WIRE 2048 32 1728 32
WIRE 2096 32 2048 32
WIRE 144 64 144 32
WIRE 480 64 480 32
WIRE 1392 64 1392 32
WIRE 1728 64 1728 32
WIRE 96 80 32 80
WIRE 1344 80 1280 80
WIRE 848 96 848 32
WIRE 2096 96 2096 32
WIRE 96 192 96 128
WIRE 144 192 144 144
WIRE 480 192 480 128
WIRE 1344 192 1344 128
WIRE 1392 192 1392 144
WIRE 1728 192 1728 128
WIRE 848 320 848 176
WIRE 928 320 848 320
WIRE 1072 320 992 320
WIRE 2096 320 2096 176
WIRE 2176 320 2096 320
WIRE 2320 320 2240 320
WIRE 1072 352 1072 320
WIRE 2320 352 2320 320
WIRE 848 480 848 320
WIRE 848 480 752 480
WIRE 1072 480 1072 432
WIRE 2320 480 2320 432
WIRE 848 528 848 480
WIRE 2096 528 2096 320
WIRE 752 544 752 480
WIRE 352 592 304 592
WIRE 560 592 432 592
WIRE 672 592 624 592
WIRE 752 688 752 608
WIRE 848 688 848 608
WIRE 848 688 752 688
WIRE 1072 704 1072 624
WIRE 528 720 416 720
WIRE 1776 736 1664 736
WIRE 528 768 528 720
WIRE 1776 768 1776 736
WIRE 672 784 672 592
WIRE 672 784 576 784
WIRE 848 784 848 688
WIRE 848 784 672 784
WIRE 2096 784 2096 608
WIRE 2096 784 1824 784
WIRE 32 800 32 80
WIRE 1280 800 1280 80
WIRE 304 816 304 592
WIRE 304 816 80 816
WIRE 416 816 416 720
WIRE 416 816 304 816
WIRE 848 816 848 784
WIRE 1664 816 1664 736
WIRE 1664 816 1328 816
WIRE 2096 816 2096 784
WIRE 704 832 576 832
WIRE 1952 832 1824 832
WIRE 1072 848 1072 784
WIRE 704 880 704 832
WIRE 1952 880 1952 832
WIRE 32 976 32 880
WIRE 80 976 80 864
WIRE 528 976 528 848
WIRE 704 976 704 960
WIRE 848 976 848 896
WIRE 1280 976 1280 880
WIRE 1328 976 1328 864
WIRE 1776 976 1776 848
WIRE 1952 976 1952 960
WIRE 2096 976 2096 896
FLAG 144 192 0
FLAG 96 192 0
FLAG 32 976 0
FLAG 80 976 0
FLAG 528 976 0
FLAG 1072 848 0
FLAG 1072 624 vdd
FLAG 480 192 0
FLAG 848 976 0
FLAG 704 976 0
FLAG 800 32 compensated
FLAG 1072 480 0
FLAG 1392 192 0
FLAG 1344 192 0
FLAG 1280 976 0
FLAG 1328 976 0
FLAG 1776 976 0
FLAG 1728 192 0
FLAG 2096 976 0
FLAG 1952 976 0
FLAG 2048 32 uncompensated
FLAG 2320 480 0
SYMBOL e 144 48 R0
SYMATTR InstName E1
SYMATTR Value 1.8
SYMBOL ind 272 48 R270
WINDOW 0 32 56 VTop 2
WINDOW 3 5 56 VBottom 2
SYMATTR InstName L1
SYMATTR Value 0.47µ
SYMATTR SpiceLine Rser=32m
SYMBOL cap 464 64 R0
SYMATTR InstName C1
SYMATTR Value 20µ
SYMBOL e 32 784 M0
SYMATTR InstName E2
SYMATTR Value 1
SYMBOL voltage 1072 688 R0
WINDOW 123 0 0 Left 0
WINDOW 39 0 0 Left 0
SYMATTR InstName V1
SYMATTR Value 1.8
SYMBOL res 832 512 R0
SYMATTR InstName R1
SYMATTR Value 100k
SYMBOL res 832 800 R0
SYMATTR InstName R2
SYMATTR Value 100k
SYMBOL voltage 704 864 R0
WINDOW 123 0 0 Left 0
WINDOW 39 0 0 Left 0
SYMATTR InstName V2
SYMATTR Value 0.8
SYMBOL cap 992 304 R90
WINDOW 0 0 32 VBottom 2
WINDOW 3 32 32 VTop 2
SYMATTR InstName C2
SYMATTR Value 1Meg
SYMBOL ind 832 80 R0
SYMATTR InstName L2
SYMATTR Value 1Meg
SYMBOL voltage 1072 336 R0
WINDOW 123 24 124 Left 2
WINDOW 39 0 0 Left 0
SYMATTR Value2 AC 1
SYMATTR InstName V3
SYMATTR Value ""
SYMBOL cap 736 544 R0
SYMATTR InstName C3
SYMATTR Value 30.65p
SYMBOL res 448 576 R90
WINDOW 0 0 56 VBottom 2
WINDOW 3 32 56 VTop 2
SYMATTR InstName R3
SYMATTR Value 1Meg
SYMBOL cap 624 576 R90
WINDOW 0 0 32 VBottom 2
WINDOW 3 32 32 VTop 2
SYMATTR InstName C4
SYMATTR Value 9p
SYMBOL e 1392 48 R0
SYMATTR InstName E3
SYMATTR Value 1.8
SYMBOL ind 1520 48 R270
WINDOW 0 32 56 VTop 2
WINDOW 3 5 56 VBottom 2
SYMATTR InstName L3
SYMATTR Value 0.47µ
SYMATTR SpiceLine Rser=32m
SYMBOL cap 1712 64 R0
SYMATTR InstName C5
SYMATTR Value 20µ
SYMBOL e 1280 784 M0
SYMATTR InstName E4
SYMATTR Value 1
SYMBOL res 2080 512 R0
SYMATTR InstName R4
SYMATTR Value 100k
SYMBOL res 2080 800 R0
SYMATTR InstName R5
SYMATTR Value 100k
SYMBOL voltage 1952 864 R0
WINDOW 123 0 0 Left 0
WINDOW 39 0 0 Left 0
SYMATTR InstName V4
SYMATTR Value 0.8
SYMBOL cap 2240 304 R90
WINDOW 0 0 32 VBottom 2
WINDOW 3 32 32 VTop 2
SYMATTR InstName C6
SYMATTR Value 1Meg
SYMBOL ind 2080 80 R0
SYMATTR InstName L4
SYMATTR Value 1Meg
SYMBOL voltage 2320 336 R0
WINDOW 123 24 124 Left 2
WINDOW 39 0 0 Left 0
SYMATTR Value2 AC 1
SYMATTR InstName V5
SYMATTR Value ""
SYMBOL e2 1776 752 M0
SYMATTR InstName E5
SYMATTR Value 707
SYMBOL e2 528 752 M0
SYMATTR InstName E6
SYMATTR Value 707
TEXT 984 1008 Left 2 !.ac dec 50 1 1G
TEXT 1504 440 Left 2 ;Uncompensated Open Loop AC analysis
TEXT 256 432 Left 2 ;Compensation Open Loop AC analysis
