Version 4
SHEET 1 2956 1368
WIRE 304 -128 304 -176
WIRE 304 -128 80 -128
WIRE 528 -128 304 -128
WIRE 848 -128 528 -128
WIRE 1040 -128 848 -128
WIRE 1616 -128 1040 -128
WIRE 2208 -128 1616 -128
WIRE 1616 -96 1616 -128
WIRE 1648 -96 1616 -96
WIRE 2208 -96 2208 -128
WIRE 2208 -96 2176 -96
WIRE 1568 -80 1376 -80
WIRE 2448 -80 2256 -80
WIRE 1648 -48 1648 -96
WIRE 1648 -48 1616 -48
WIRE 2176 -48 2176 -96
WIRE 2208 -48 2176 -48
WIRE 848 -32 848 -128
WIRE 32 0 -32 0
WIRE 272 0 112 0
WIRE 544 0 432 0
WIRE 672 0 624 0
WIRE 1616 32 1616 0
WIRE 1616 32 1584 32
WIRE 2208 32 2208 0
WIRE 2240 32 2208 32
WIRE 1824 48 1664 48
WIRE 2160 48 2000 48
WIRE 1040 64 1040 -128
WIRE 1584 80 1584 32
WIRE 1616 80 1584 80
WIRE 2240 80 2240 32
WIRE 2240 80 2208 80
WIRE 848 96 848 48
WIRE 976 96 848 96
WIRE 528 112 528 -128
WIRE -144 128 -176 128
WIRE -32 128 -32 0
WIRE -32 128 -64 128
WIRE 80 128 80 -128
WIRE 336 128 320 128
WIRE 432 128 432 0
WIRE 432 128 416 128
WIRE 448 128 432 128
WIRE 1312 128 1168 128
WIRE -32 160 -32 128
WIRE 16 160 -32 160
WIRE 672 160 672 0
WIRE 672 160 608 160
WIRE 976 160 672 160
WIRE 1824 160 1824 48
WIRE 2208 160 2208 128
WIRE 2208 160 1824 160
WIRE 1616 176 1616 128
WIRE 2000 176 2000 48
WIRE 2000 176 1616 176
WIRE 272 192 272 0
WIRE 272 192 192 192
WIRE 448 192 272 192
WIRE 1616 192 1616 176
WIRE 1616 192 1488 192
WIRE 1712 192 1616 192
WIRE 2208 192 2208 160
WIRE 2208 192 2112 192
WIRE 2336 192 2208 192
WIRE 2704 192 2336 192
WIRE -144 224 -176 224
WIRE -32 224 -64 224
WIRE 16 224 -32 224
WIRE 848 256 848 96
WIRE 1488 256 1488 192
WIRE 1712 256 1712 192
WIRE 2112 256 2112 192
WIRE 2336 256 2336 192
WIRE -32 288 -32 224
WIRE 1504 304 1488 304
WIRE 1712 304 1696 304
WIRE 2128 304 2112 304
WIRE 2336 304 2320 304
WIRE 1312 336 1312 128
WIRE 1376 336 1376 -80
WIRE 1376 336 1312 336
WIRE 1440 336 1376 336
WIRE 1824 336 1824 160
WIRE 1824 336 1760 336
WIRE 2000 336 2000 176
WIRE 2064 336 2000 336
WIRE 2448 336 2448 -80
WIRE 2448 336 2384 336
WIRE 2688 336 2448 336
WIRE 1504 352 1504 304
WIRE 1504 352 1488 352
WIRE 1696 352 1696 304
WIRE 1712 352 1696 352
WIRE 2128 352 2128 304
WIRE 2128 352 2112 352
WIRE 2320 352 2320 304
WIRE 2336 352 2320 352
WIRE -32 432 -32 368
WIRE 80 432 80 256
WIRE 80 432 -32 432
WIRE 304 432 80 432
WIRE 528 432 528 208
WIRE 528 432 304 432
WIRE 848 432 848 336
WIRE 848 432 528 432
WIRE 1040 432 1040 192
WIRE 1040 432 848 432
WIRE 1488 432 1488 352
WIRE 1488 432 1040 432
WIRE 1712 432 1712 352
WIRE 1712 432 1488 432
WIRE 2112 432 2112 352
WIRE 2112 432 1712 432
WIRE 2320 432 2320 352
WIRE 2320 432 2112 432
WIRE 304 480 304 432
FLAG 320 128 0
FLAG -176 224 VINP
IOPIN -176 224 In
FLAG -176 128 VINN
IOPIN -176 128 In
FLAG 304 -176 VDDA
IOPIN 304 -176 In
FLAG 304 480 GNDA
IOPIN 304 480 Out
FLAG 2704 192 VOUT
IOPIN 2704 192 Out
FLAG 2688 336 RESET
IOPIN 2688 336 In
SYMBOL Error_Amplifier 96 208 R0
SYMATTR InstName X1
SYMBOL res -48 112 R90
WINDOW 0 0 56 VBottom 2
WINDOW 3 32 56 VTop 2
SYMATTR InstName R1
SYMATTR Value 200k
SYMBOL res 128 -16 R90
WINDOW 0 0 56 VBottom 2
WINDOW 3 32 56 VTop 2
SYMATTR InstName R2
SYMATTR Value 1Meg
SYMBOL res -48 208 R90
WINDOW 0 0 56 VBottom 2
WINDOW 3 32 56 VTop 2
SYMATTR InstName R3
SYMATTR Value 200k
SYMBOL res -48 272 R0
SYMATTR InstName R4
SYMATTR Value 1Meg
SYMBOL res 432 112 R90
WINDOW 0 0 56 VBottom 2
WINDOW 3 32 56 VTop 2
SYMATTR InstName R5
SYMATTR Value 100k
SYMBOL res 640 -16 R90
WINDOW 0 0 56 VBottom 2
WINDOW 3 32 56 VTop 2
SYMATTR InstName R6
SYMATTR Value 1Meg
SYMBOL Pmos_Error_Amplifier 528 176 R0
SYMATTR InstName X2
SYMBOL Comparator 1040 112 R0
SYMATTR InstName X3
SYMBOL res 832 -48 R0
SYMATTR InstName R8
SYMATTR Value 350k
SYMBOL res 832 240 R0
SYMATTR InstName R9
SYMATTR Value 1.45Meg
SYMBOL cmosn 1440 256 R0
SYMATTR InstName M1
SYMATTR Value2 l=180n w=270n
SYMBOL cmosn 1760 256 M0
SYMATTR InstName M2
SYMATTR Value2 l=180n w=270n
SYMBOL cmosp 1568 0 M180
SYMATTR InstName M3
SYMATTR Value2 l=180n w=1u
SYMBOL cmosp 1664 128 R180
SYMATTR InstName M4
SYMATTR Value2 l=180n w=1u
SYMBOL cmosn 2384 256 M0
SYMATTR InstName M5
SYMATTR Value2 l=180n w=270n
SYMBOL cmosn 2064 256 R0
SYMATTR InstName M6
SYMATTR Value2 l=180n w=270n
SYMBOL cmosp 2256 0 R180
SYMATTR InstName M7
SYMATTR Value2 l=180n w=270n
SYMBOL cmosp 2160 128 M180
SYMATTR InstName M8
SYMATTR Value2 l=180n w=270n
TEXT 128 272 Left 2 ;NMOS INPUT STAGE
TEXT 576 272 Left 2 ;PMOS INPUT STAGE
TEXT 176 352 Left 2 ;Gain is around 43.2 V/V
TEXT 416 -176 Left 2 !.include tsmc018.lib
TEXT 560 592 Center 2 ;Problem with single stage comparator (NMOS input stage) is that it gives logic high better but logic low as something as voltage follower.\nSo it should be used only when logic high is required\nHere I have to ensure that is no false positive overcurrent detection, So used a specialised comparator
TEXT 1080 208 Left 2 ;COMPARATOR
TEXT 832 288 VLeft 2 ;Current Reference set
TEXT 1848 464 Left 2 ;SR LATCH
