Version 4
SHEET 1 3580 1620
WIRE 1120 192 1120 160
WIRE 1120 192 1024 192
WIRE 1120 224 1120 192
WIRE 1696 224 1696 160
WIRE 768 256 672 256
WIRE 1072 256 768 256
WIRE 1664 272 1184 272
WIRE 1920 272 1776 272
WIRE 2080 272 1920 272
WIRE 1072 288 944 288
WIRE 1120 384 1120 320
WIRE 1696 384 1696 320
WIRE 1792 448 1792 400
WIRE 1712 496 992 496
WIRE 1920 496 1920 272
WIRE 1920 496 1824 496
WIRE 1792 560 1792 544
WIRE 1792 688 1792 672
WIRE 944 736 944 288
WIRE 1712 736 944 736
WIRE 1920 736 1824 736
WIRE 1792 832 1792 784
WIRE 1120 912 1120 848
WIRE 1680 912 1680 848
WIRE 1328 928 1328 848
WIRE 896 944 896 864
WIRE 992 944 992 496
WIRE 1072 944 992 944
WIRE 1296 960 1184 960
WIRE 1648 960 1408 960
WIRE 1920 960 1920 736
WIRE 1920 960 1760 960
WIRE 2080 960 1920 960
WIRE 768 976 768 256
WIRE 864 976 768 976
WIRE 1072 976 976 976
WIRE 1120 1040 1120 1008
WIRE 1184 1040 1120 1040
WIRE 896 1072 896 1008
WIRE 1120 1072 1120 1040
WIRE 1328 1072 1328 992
WIRE 1680 1072 1680 1008
FLAG 672 256 PWM
IOPIN 672 256 In
FLAG 2080 272 DRV_P
IOPIN 2080 272 Out
FLAG 2080 960 DRV_N
IOPIN 2080 960 Out
FLAG 1120 160 VDDA
FLAG 1696 160 VDDA
FLAG 1792 400 VDDA
FLAG 1792 672 VDDA
FLAG 1680 848 VDDA
FLAG 1120 848 VDDA
FLAG 896 864 VDDA
FLAG 1120 384 GNDA
FLAG 1696 384 GNDA
FLAG 1792 560 GNDA
FLAG 1792 832 GNDA
FLAG 896 1072 GNDA
FLAG 1120 1072 GNDA
FLAG 1680 1072 GNDA
FLAG 1024 192 VDDA
IOPIN 1024 192 In
FLAG 1184 1040 GNDA
IOPIN 1184 1040 Out
FLAG 1328 848 VDDA
FLAG 1328 1072 GNDA
SYMBOL Nand 1152 272 R0
SYMATTR InstName X1
SYMBOL Nand 1152 960 R0
SYMATTR InstName X2
SYMBOL Not 896 960 R0
SYMATTR InstName X3
SYMBOL Digital_Buffers 1680 928 R0
SYMATTR InstName X4
SYMBOL Digital_Buffers 1696 240 R0
SYMATTR InstName X5
SYMBOL Matched_Inverter 1792 704 M0
SYMATTR InstName X6
SYMBOL Matched_Buffer 1776 464 M0
SYMATTR InstName X7
SYMBOL Not 1328 944 R0
SYMATTR InstName X8
TEXT 1328 144 Left 2 !.include tsmc018.lib
TEXT 1744 320 Left 2 ;Digital Buffers
TEXT 1728 1000 Left 2 ;Digital Buffers
TEXT 1560 776 Left 2 ;Matched Inverter
TEXT 1840 520 Left 2 ;Matched Buffer
