Version 4
SHEET 1 4036 800
WIRE 256 -288 144 -288
WIRE 432 -288 256 -288
WIRE 704 -288 432 -288
WIRE 784 -288 784 -368
WIRE 784 -288 704 -288
WIRE 896 -288 784 -288
WIRE 1280 -288 896 -288
WIRE 1648 -288 1280 -288
WIRE 2032 -288 1648 -288
WIRE 2544 -288 2032 -288
WIRE 3072 -288 2544 -288
WIRE 144 -176 144 -288
WIRE 256 -176 256 -288
WIRE 256 -176 224 -176
WIRE 432 -176 432 -288
WIRE 464 -176 432 -176
WIRE 896 -176 896 -288
WIRE 896 -176 864 -176
WIRE 1280 -176 1280 -288
WIRE 1312 -176 1280 -176
WIRE 1648 -176 1648 -288
WIRE 1648 -176 1616 -176
WIRE 2032 -176 2032 -288
WIRE 2064 -176 2032 -176
WIRE 2544 -176 2544 -288
WIRE 2576 -176 2544 -176
WIRE 3072 -176 3072 -288
WIRE 3104 -176 3072 -176
WIRE 352 -160 304 -160
WIRE 384 -160 352 -160
WIRE 1088 -160 944 -160
WIRE 1232 -160 1088 -160
WIRE 1840 -160 1696 -160
WIRE 1984 -160 1840 -160
WIRE 2496 -160 2384 -160
WIRE 3024 -160 2912 -160
WIRE 224 -128 224 -176
WIRE 256 -128 224 -128
WIRE 464 -128 464 -176
WIRE 464 -128 432 -128
WIRE 864 -128 864 -176
WIRE 896 -128 864 -128
WIRE 1312 -128 1312 -176
WIRE 1312 -128 1280 -128
WIRE 1616 -128 1616 -176
WIRE 1648 -128 1616 -128
WIRE 2064 -128 2064 -176
WIRE 2064 -128 2032 -128
WIRE 2576 -128 2576 -176
WIRE 2576 -128 2544 -128
WIRE 3104 -128 3104 -176
WIRE 3104 -128 3072 -128
WIRE 704 -64 704 -288
WIRE 896 -64 896 -80
WIRE 1088 -64 1088 -160
WIRE 1088 -64 896 -64
WIRE 1648 -64 1648 -80
WIRE 1840 -64 1840 -160
WIRE 1840 -64 1648 -64
WIRE 256 -16 256 -80
WIRE 352 -16 352 -160
WIRE 352 -16 256 -16
WIRE 1280 -16 1280 -80
WIRE 1344 -16 1280 -16
WIRE 1376 -16 1344 -16
WIRE 2032 -16 2032 -80
WIRE 2096 -16 2032 -16
WIRE 2128 -16 2096 -16
WIRE 2336 144 2288 144
WIRE 2384 144 2384 -160
WIRE 2384 144 2336 144
WIRE 2544 144 2544 -80
WIRE 2640 144 2544 144
WIRE 2864 144 2816 144
WIRE 2912 144 2912 -160
WIRE 2912 144 2864 144
WIRE 3072 144 3072 -80
WIRE 3168 144 3072 144
WIRE 896 176 896 -64
WIRE 1280 176 1280 -16
WIRE 1648 176 1648 -64
WIRE 2032 176 2032 -16
WIRE 928 224 896 224
WIRE 1280 224 1248 224
WIRE 1680 224 1648 224
WIRE 2032 224 2000 224
WIRE 704 256 704 16
WIRE 768 256 704 256
WIRE 848 256 768 256
WIRE 1472 256 1328 256
WIRE 1600 256 1472 256
WIRE 2128 256 2080 256
WIRE 2176 256 2128 256
WIRE 256 272 256 -16
WIRE 928 272 928 224
WIRE 928 272 896 272
WIRE 1248 272 1248 224
WIRE 1280 272 1248 272
WIRE 1680 272 1680 224
WIRE 1680 272 1648 272
WIRE 2000 272 2000 224
WIRE 2032 272 2000 272
WIRE 144 320 144 -96
WIRE 192 320 144 320
WIRE 1472 336 1472 256
WIRE 896 352 896 272
WIRE 1088 352 896 352
WIRE 1280 352 1280 272
WIRE 1280 352 1088 352
WIRE 1648 352 1648 272
WIRE 1840 352 1648 352
WIRE 2032 352 2032 272
WIRE 2032 352 1840 352
WIRE 144 368 144 320
WIRE 432 384 432 -80
WIRE 544 384 432 384
WIRE 704 384 704 256
WIRE 432 400 432 384
WIRE 1088 400 1088 352
WIRE 1840 400 1840 352
WIRE 2544 400 2544 144
WIRE 3072 400 3072 144
WIRE 256 416 256 368
WIRE 256 416 208 416
WIRE 256 448 256 416
WIRE 432 448 416 448
WIRE 1104 448 1088 448
WIRE 1856 448 1840 448
WIRE 2560 448 2544 448
WIRE 3088 448 3072 448
WIRE 544 480 544 384
WIRE 544 480 480 480
WIRE 1040 480 544 480
WIRE 1792 480 1040 480
WIRE 2384 480 2384 144
WIRE 2496 480 2384 480
WIRE 2912 480 2912 144
WIRE 3024 480 2912 480
WIRE 416 496 416 448
WIRE 432 496 416 496
WIRE 1104 496 1104 448
WIRE 1104 496 1088 496
WIRE 1856 496 1856 448
WIRE 1856 496 1840 496
WIRE 2560 496 2560 448
WIRE 2560 496 2544 496
WIRE 3088 496 3088 448
WIRE 3088 496 3072 496
WIRE 144 592 144 464
WIRE 256 592 256 528
WIRE 256 592 144 592
WIRE 432 592 432 496
WIRE 432 592 256 592
WIRE 704 592 704 464
WIRE 704 592 432 592
WIRE 784 592 704 592
WIRE 1088 592 1088 496
WIRE 1088 592 784 592
WIRE 1840 592 1840 496
WIRE 1840 592 1088 592
WIRE 2544 592 2544 496
WIRE 2544 592 1840 592
WIRE 3072 592 3072 496
WIRE 3072 592 2544 592
WIRE 784 672 784 592
FLAG 2336 144 outn1
FLAG 2864 144 outp1
FLAG 784 -368 VDDA
IOPIN 784 -368 In
FLAG 784 672 GNDA
IOPIN 784 672 Out
FLAG 3168 144 VOUTN
IOPIN 3168 144 Out
FLAG 2640 144 VOUTP
IOPIN 2640 144 Out
FLAG 2096 -16 outn1
FLAG 1344 -16 outp1
FLAG 1472 336 VIN
IOPIN 1472 336 In
FLAG 768 256 vbias
FLAG 2128 256 vbias
SYMBOL cmosp 384 -80 M180
SYMATTR InstName M6
SYMATTR Value2 l=720n w=10u
SYMBOL npn 208 368 M0
SYMATTR InstName Q1
SYMATTR Value 2N3904
SYMBOL res 272 432 M0
SYMATTR InstName R3
SYMATTR Value 1Meg
SYMBOL npn 192 272 R0
SYMATTR InstName Q2
SYMATTR Value 2N3904
SYMBOL cmosp 304 -80 R180
SYMATTR InstName M7
SYMATTR Value2 l=360n w=2.5u
SYMBOL res 160 -192 M0
SYMATTR InstName R4
SYMATTR Value 1Meg
SYMBOL cmosn 480 400 M0
SYMATTR InstName M8
SYMATTR Value2 l=720n w=2u
SYMBOL cmosp 2496 -80 M180
SYMATTR InstName M9
SYMATTR Value2 l=180n w=5u
SYMBOL cmosn 2496 400 R0
SYMATTR InstName M10
SYMATTR Value2 l=180n w=1u
SYMBOL cmosp 3024 -80 M180
SYMATTR InstName M11
SYMATTR Value2 l=180n w=5u
SYMBOL cmosn 3024 400 R0
SYMATTR InstName M12
SYMATTR Value2 l=180n w=1u
SYMBOL cmosp 1984 -80 M180
SYMATTR InstName M13
SYMATTR Value2 l=180n w=1.35u
SYMBOL cmosp 1696 -80 R180
SYMATTR InstName M14
SYMATTR Value2 l=180n w=1.35u
SYMBOL cmosn 2080 176 M0
SYMATTR InstName M15
SYMATTR Value2 l=180n w=270n
SYMBOL cmosn 1600 176 R0
SYMATTR InstName M16
SYMATTR Value2 l=180n w=270n
SYMBOL cmosn 1792 400 R0
SYMATTR InstName M17
SYMATTR Value2 l=720n w=2u
SYMBOL cmosp 1232 -80 M180
SYMATTR InstName M1
SYMATTR Value2 l=180n w=1.35u
SYMBOL cmosp 944 -80 R180
SYMATTR InstName M2
SYMATTR Value2 l=180n w=1.35u
SYMBOL cmosn 1328 176 M0
SYMATTR InstName M3
SYMATTR Value2 l=180n w=270n
SYMBOL cmosn 848 176 R0
SYMATTR InstName M4
SYMATTR Value2 l=180n w=270n
SYMBOL cmosn 1040 400 R0
SYMATTR InstName M18
SYMATTR Value2 l=720n w=2u
SYMBOL res 688 -80 R0
SYMATTR InstName R1
SYMATTR Value 1Meg
SYMBOL res 688 368 R0
SYMATTR InstName R2
SYMATTR Value 1Meg
TEXT 928 -360 Left 2 !.include tsmc018.lib
TEXT 1680 320 Left 2 ;Single Stage High Gain amplifier
TEXT 928 320 Left 2 ;Single Stage High Gain amplifier
