Version 4
SHEET 1 2076 736
WIRE -48 -496 -160 -496
WIRE 176 -496 -48 -496
WIRE 624 -496 176 -496
WIRE 688 -496 624 -496
WIRE 1040 -496 1040 -560
WIRE 1040 -496 688 -496
WIRE 1328 -496 1040 -496
WIRE 1760 -496 1328 -496
WIRE -160 -384 -160 -496
WIRE -48 -384 -48 -496
WIRE -48 -384 -80 -384
WIRE 176 -384 176 -496
WIRE 208 -384 176 -384
WIRE 688 -384 688 -496
WIRE 720 -384 688 -384
WIRE 1328 -384 1328 -496
WIRE 1360 -384 1328 -384
WIRE 1760 -384 1760 -496
WIRE 1792 -384 1760 -384
WIRE 48 -368 0 -368
WIRE 128 -368 48 -368
WIRE 640 -368 128 -368
WIRE 1280 -368 640 -368
WIRE 1712 -368 1280 -368
WIRE -80 -336 -80 -384
WIRE -48 -336 -80 -336
WIRE 208 -336 208 -384
WIRE 208 -336 176 -336
WIRE 720 -336 720 -384
WIRE 720 -336 688 -336
WIRE 1360 -336 1360 -384
WIRE 1360 -336 1328 -336
WIRE 1792 -336 1792 -384
WIRE 1792 -336 1760 -336
WIRE -48 -240 -48 -288
WIRE 48 -240 48 -368
WIRE 48 -240 -48 -240
WIRE 544 -112 512 -112
WIRE 688 -112 688 -288
WIRE 688 -112 544 -112
WIRE 832 -112 688 -112
WIRE 864 -112 832 -112
WIRE 464 -96 368 -96
WIRE 1008 -96 912 -96
WIRE 544 -64 544 -112
WIRE 544 -64 512 -64
WIRE 832 -64 832 -112
WIRE 864 -64 832 -64
WIRE 1760 -32 1760 -288
WIRE 1952 -32 1760 -32
WIRE 624 48 624 -496
WIRE 656 96 624 96
WIRE 1760 96 1760 -32
WIRE 1792 96 1760 96
WIRE 864 112 864 -16
WIRE 1072 112 864 112
WIRE 1168 112 1072 112
WIRE 1328 112 1328 -288
WIRE 1328 112 1232 112
WIRE 1712 112 1328 112
WIRE 512 128 512 -16
WIRE 576 128 512 128
WIRE 656 144 656 96
WIRE 656 144 624 144
WIRE 1792 144 1792 96
WIRE 1792 144 1760 144
WIRE 512 192 512 128
WIRE 864 192 864 112
WIRE 1328 192 1328 112
WIRE -48 208 -48 -240
WIRE 512 240 480 240
WIRE 896 240 864 240
WIRE 1360 240 1328 240
WIRE -160 256 -160 -304
WIRE -112 256 -160 256
WIRE 624 272 624 144
WIRE 624 272 560 272
WIRE 816 272 624 272
WIRE 1072 272 1072 112
WIRE 1280 272 1072 272
WIRE 480 288 480 240
WIRE 512 288 480 288
WIRE 896 288 896 240
WIRE 896 288 864 288
WIRE 1360 288 1360 240
WIRE 1360 288 1328 288
WIRE -160 304 -160 256
WIRE 176 320 176 -288
WIRE 176 320 64 320
WIRE -48 352 -48 304
WIRE -48 352 -96 352
WIRE 176 368 176 320
WIRE 624 368 624 272
WIRE -48 384 -48 352
WIRE 208 416 176 416
WIRE 656 416 624 416
WIRE 64 448 64 320
WIRE 128 448 64 448
WIRE 576 448 128 448
WIRE 208 464 208 416
WIRE 208 464 176 464
WIRE 656 464 656 416
WIRE 656 464 624 464
WIRE -160 528 -160 400
WIRE -48 528 -48 464
WIRE -48 528 -160 528
WIRE 176 528 176 464
WIRE 176 528 -48 528
WIRE 512 528 512 288
WIRE 512 528 176 528
WIRE 624 528 624 464
WIRE 624 528 512 528
WIRE 864 528 864 288
WIRE 864 528 624 528
WIRE 1040 528 864 528
WIRE 1328 528 1328 288
WIRE 1328 528 1040 528
WIRE 1760 528 1760 192
WIRE 1760 528 1328 528
WIRE 1040 592 1040 528
FLAG 368 -96 VINN
IOPIN 368 -96 In
FLAG 1008 -96 VINP
IOPIN 1008 -96 In
FLAG 1040 -560 VDDA
IOPIN 1040 -560 In
FLAG 1040 592 GNDA
IOPIN 1040 592 Out
FLAG 1952 -32 VOUT
IOPIN 1952 -32 Out
SYMBOL npn -96 304 M0
SYMATTR InstName Q1
SYMATTR Value 2N3904
SYMBOL res -32 368 M0
SYMATTR InstName R1
SYMATTR Value 1Meg
SYMBOL npn -112 208 R0
SYMATTR InstName Q2
SYMATTR Value 2N3904
SYMBOL cmosp 0 -288 R180
SYMATTR InstName M3
SYMATTR Value2 l=180n w=5u
SYMBOL res -144 -400 M0
SYMATTR InstName R2
SYMATTR Value 1Meg
SYMBOL cmosp 640 -288 M180
SYMATTR InstName M4
SYMATTR Value2 l=180n w=5u
SYMBOL cmosp 912 -16 R180
SYMATTR InstName M5
SYMATTR Value2 l=180n w=1.35u
SYMBOL cmosp 464 -16 M180
SYMATTR InstName M6
SYMATTR Value2 l=180n w=1.35u
SYMBOL cmosn 816 192 R0
SYMATTR InstName M7
SYMATTR Value2 l=180n w=1u
SYMBOL cmosn 560 192 M0
SYMATTR InstName M8
SYMATTR Value2 l=180n w=1u
SYMBOL cmosp 1280 -288 M180
SYMATTR InstName M9
SYMATTR Value2 l=360n w=5u
SYMBOL cmosn 1280 192 R0
SYMATTR InstName M1
SYMATTR Value2 l=360n w=1u
SYMBOL cap 1232 96 R90
WINDOW 0 0 32 VBottom 2
WINDOW 3 32 32 VTop 2
SYMATTR InstName C1
SYMATTR Value 100f
SYMBOL cmosp 1712 192 M180
SYMATTR InstName M2
SYMATTR Value2 l=180n w=5u
SYMBOL cmosp 1712 -288 M180
SYMATTR InstName M10
SYMATTR Value2 l=180n w=5u
SYMBOL cmosn 576 48 R0
SYMATTR InstName M11
SYMATTR Value2 l=180n w=10u
SYMBOL cmosp 128 -288 M180
SYMATTR InstName M12
SYMATTR Value2 l=180n w=5u
SYMBOL cmosn 128 368 R0
SYMATTR InstName M13
SYMATTR Value2 l=180n w=1u
SYMBOL cmosn 576 368 R0
SYMATTR InstName M14
SYMATTR Value2 l=1u w=2u
TEXT 256 704 Left 2 ;Fsw = 8MHz, So UGB = 800KHz, So BW of Error Amplifer >> 800KHz. I have taken it Gain cross over frequency of error amplifier to be 8MHz
TEXT 272 -592 Left 2 !.include tsmc018.lib
TEXT 1232 328 Left 2 ;Common Source Stage
TEXT 1648 216 Left 2 ;Common Drain Stage
TEXT 680 288 Left 2 ;P Input stage
