Version 4
SHEET 1 2460 752
WIRE -48 -496 -160 -496
WIRE 176 -496 -48 -496
WIRE 688 -496 176 -496
WIRE 1040 -496 1040 -560
WIRE 1040 -496 688 -496
WIRE 1424 -496 1040 -496
WIRE 1712 -496 1424 -496
WIRE 2144 -496 1712 -496
WIRE -160 -384 -160 -496
WIRE -48 -384 -48 -496
WIRE -48 -384 -80 -384
WIRE 176 -384 176 -496
WIRE 208 -384 176 -384
WIRE 688 -384 688 -496
WIRE 720 -384 688 -384
WIRE 1712 -384 1712 -496
WIRE 1744 -384 1712 -384
WIRE 2144 -384 2144 -496
WIRE 2176 -384 2144 -384
WIRE 48 -368 0 -368
WIRE 128 -368 48 -368
WIRE 640 -368 128 -368
WIRE 1664 -368 640 -368
WIRE 2096 -368 1664 -368
WIRE -80 -336 -80 -384
WIRE -48 -336 -80 -336
WIRE 208 -336 208 -384
WIRE 208 -336 176 -336
WIRE 720 -336 720 -384
WIRE 720 -336 688 -336
WIRE 1744 -336 1744 -384
WIRE 1744 -336 1712 -336
WIRE 2176 -336 2176 -384
WIRE 2176 -336 2144 -336
WIRE -48 -240 -48 -288
WIRE 48 -240 48 -368
WIRE 48 -240 -48 -240
WIRE 544 -112 512 -112
WIRE 688 -112 688 -288
WIRE 688 -112 544 -112
WIRE 832 -112 688 -112
WIRE 864 -112 832 -112
WIRE 464 -96 416 -96
WIRE 960 -96 912 -96
WIRE 544 -64 544 -112
WIRE 544 -64 512 -64
WIRE 832 -64 832 -112
WIRE 864 -64 832 -64
WIRE 2144 -32 2144 -288
WIRE 2336 -32 2144 -32
WIRE 1424 32 1424 -496
WIRE 1456 80 1424 80
WIRE 2144 80 2144 -32
WIRE 2176 80 2144 80
WIRE 2144 96 2144 80
WIRE 864 112 864 -16
WIRE 1376 112 864 112
WIRE 1712 112 1712 -288
WIRE 2096 112 1712 112
WIRE 1456 128 1456 80
WIRE 1456 128 1424 128
WIRE 512 144 512 -16
WIRE 640 144 512 144
WIRE 2176 144 2176 80
WIRE 2176 144 2144 144
WIRE 512 192 512 144
WIRE 864 192 864 112
WIRE 1712 192 1712 112
WIRE -48 208 -48 -240
WIRE 512 240 480 240
WIRE 896 240 864 240
WIRE 1744 240 1712 240
WIRE -160 256 -160 -304
WIRE -112 256 -160 256
WIRE 640 272 640 144
WIRE 640 272 560 272
WIRE 816 272 640 272
WIRE 1424 272 1424 128
WIRE 1664 272 1424 272
WIRE 480 288 480 240
WIRE 512 288 480 288
WIRE 896 288 896 240
WIRE 896 288 864 288
WIRE 1744 288 1744 240
WIRE 1744 288 1712 288
WIRE -160 304 -160 256
WIRE 176 320 176 -288
WIRE 288 320 176 320
WIRE -48 352 -48 304
WIRE -48 352 -96 352
WIRE 176 352 176 320
WIRE 1424 352 1424 272
WIRE -48 384 -48 352
WIRE 176 400 144 400
WIRE 1456 400 1424 400
WIRE 288 432 288 320
WIRE 288 432 224 432
WIRE 1376 432 288 432
WIRE 144 448 144 400
WIRE 176 448 144 448
WIRE 1456 448 1456 400
WIRE 1456 448 1424 448
WIRE -160 528 -160 400
WIRE -48 528 -48 464
WIRE -48 528 -160 528
WIRE 176 528 176 448
WIRE 176 528 -48 528
WIRE 512 528 512 288
WIRE 512 528 176 528
WIRE 864 528 864 288
WIRE 864 528 512 528
WIRE 1040 528 864 528
WIRE 1424 528 1424 448
WIRE 1424 528 1040 528
WIRE 1712 528 1712 288
WIRE 1712 528 1424 528
WIRE 2144 528 2144 192
WIRE 2144 528 1712 528
WIRE 1040 592 1040 528
FLAG 416 -96 VINN
IOPIN 416 -96 In
FLAG 960 -96 VINP
IOPIN 960 -96 In
FLAG 1040 -560 VDDA
IOPIN 1040 -560 In
FLAG 1040 592 GNDA
IOPIN 1040 592 Out
FLAG 2336 -32 VOUT
IOPIN 2336 -32 Out
SYMBOL npn -96 304 M0
SYMATTR InstName Q1
SYMATTR Value 2N3904
SYMBOL res -32 368 M0
SYMATTR InstName R1
SYMATTR Value 1Meg
SYMBOL npn -112 208 R0
SYMATTR InstName Q2
SYMATTR Value 2N3904
SYMBOL cmosp 0 -288 R180
SYMATTR InstName M3
SYMATTR Value2 l=180n w=5u
SYMBOL res -144 -400 M0
SYMATTR InstName R2
SYMATTR Value 1Meg
SYMBOL cmosp 640 -288 M180
SYMATTR InstName M4
SYMATTR Value2 l=180n w=5u
SYMBOL cmosp 912 -16 R180
SYMATTR InstName M5
SYMATTR Value2 l=180n w=1.35u
SYMBOL cmosp 464 -16 M180
SYMATTR InstName M6
SYMATTR Value2 l=180n w=1.35u
SYMBOL cmosn 816 192 R0
SYMATTR InstName M7
SYMATTR Value2 l=360n w=1u
SYMBOL cmosn 560 192 M0
SYMATTR InstName M8
SYMATTR Value2 l=360n w=1u
SYMBOL cmosp 1664 -288 M180
SYMATTR InstName M9
SYMATTR Value2 l=180n w=5u
SYMBOL cmosp 2096 192 M180
SYMATTR InstName M2
SYMATTR Value2 l=180n w=5u
SYMBOL cmosp 2096 -288 M180
SYMATTR InstName M10
SYMATTR Value2 l=180n w=5u
SYMBOL cmosn 1664 192 R0
SYMATTR InstName M1
SYMATTR Value2 l=180n w=1u
SYMBOL cmosp 128 -288 M180
SYMATTR InstName M11
SYMATTR Value2 l=180n w=5u
SYMBOL cmosn 224 352 M0
SYMATTR InstName M12
SYMATTR Value2 l=180n w=1u
SYMBOL cmosn 1376 352 R0
SYMATTR InstName M13
SYMATTR Value2 l=180n w=1u
SYMBOL cmosn 1376 32 R0
SYMATTR InstName M14
SYMATTR Value2 l=180n w=5u
TEXT 256 704 Left 2 ;Fsw = 8MHz, So UGB = 800KHz, So BW of Error Amplifer >> 800KHz. I have taken it Gain cross over frequency of error amplifier to be 8MHz
TEXT 272 -592 Left 2 !.include tsmc018.lib
TEXT 1616 328 Left 2 ;Common Source Stage
TEXT 2032 216 Left 2 ;Common Drain Stage
TEXT 680 288 Left 2 ;P Input stage
TEXT 560 728 Left 2 ;Required Phase margin is 72 Degrees (Q=0.5, Optimal step response without overshoot)
