Version 4
SHEET 1 1596 736
WIRE 144 -352 32 -352
WIRE 640 -352 640 -416
WIRE 640 -352 144 -352
WIRE 688 -352 640 -352
WIRE 1328 -352 688 -352
WIRE 32 -240 32 -352
WIRE 144 -240 144 -352
WIRE 144 -240 112 -240
WIRE 688 -240 688 -352
WIRE 720 -240 688 -240
WIRE 1328 -240 1328 -352
WIRE 1360 -240 1328 -240
WIRE 240 -224 192 -224
WIRE 640 -224 240 -224
WIRE 1280 -224 640 -224
WIRE 112 -192 112 -240
WIRE 144 -192 112 -192
WIRE 720 -192 720 -240
WIRE 720 -192 688 -192
WIRE 1360 -192 1360 -240
WIRE 1360 -192 1328 -192
WIRE 544 -112 512 -112
WIRE 688 -112 688 -144
WIRE 688 -112 544 -112
WIRE 832 -112 688 -112
WIRE 864 -112 832 -112
WIRE 464 -96 368 -96
WIRE 1008 -96 912 -96
WIRE 144 -80 144 -144
WIRE 240 -80 240 -224
WIRE 240 -80 144 -80
WIRE 544 -64 544 -112
WIRE 544 -64 512 -64
WIRE 832 -64 832 -112
WIRE 864 -64 832 -64
WIRE 864 112 864 -16
WIRE 1104 112 864 112
WIRE 1184 112 1104 112
WIRE 1328 112 1328 -144
WIRE 1328 112 1248 112
WIRE 512 160 512 -16
WIRE 688 160 512 160
WIRE 1328 160 1328 112
WIRE 1472 160 1328 160
WIRE 512 192 512 160
WIRE 864 192 864 112
WIRE 1328 192 1328 160
WIRE 144 208 144 -80
WIRE 512 240 480 240
WIRE 896 240 864 240
WIRE 1360 240 1328 240
WIRE 32 256 32 -160
WIRE 80 256 32 256
WIRE 688 272 688 160
WIRE 688 272 560 272
WIRE 816 272 688 272
WIRE 1104 272 1104 112
WIRE 1280 272 1104 272
WIRE 480 288 480 240
WIRE 512 288 480 288
WIRE 896 288 896 240
WIRE 896 288 864 288
WIRE 1360 288 1360 240
WIRE 1360 288 1328 288
WIRE 32 304 32 256
WIRE 144 352 144 304
WIRE 144 352 96 352
WIRE 144 384 144 352
WIRE 32 528 32 400
WIRE 144 528 144 464
WIRE 144 528 32 528
WIRE 512 528 512 288
WIRE 512 528 144 528
WIRE 640 528 512 528
WIRE 864 528 864 288
WIRE 864 528 640 528
WIRE 1328 528 1328 288
WIRE 1328 528 864 528
WIRE 640 592 640 528
FLAG 368 -96 VINN
IOPIN 368 -96 In
FLAG 1008 -96 VINP
IOPIN 1008 -96 In
FLAG 640 -416 VDDA
IOPIN 640 -416 In
FLAG 640 592 GNDA
IOPIN 640 592 Out
FLAG 1472 160 VOUT
IOPIN 1472 160 Out
SYMBOL npn 96 304 M0
SYMATTR InstName Q1
SYMATTR Value 2N3904
SYMBOL res 160 368 M0
SYMATTR InstName R1
SYMATTR Value 1Meg
SYMBOL npn 80 208 R0
SYMATTR InstName Q2
SYMATTR Value 2N3904
SYMBOL cmosp 192 -144 R180
SYMATTR InstName M3
SYMATTR Value2 l=360n w=2.5u
SYMBOL res 48 -256 M0
SYMATTR InstName R2
SYMATTR Value 1Meg
SYMBOL cmosp 640 -144 M180
SYMATTR InstName M4
SYMATTR Value2 l=720n w=20u
SYMBOL cmosp 912 -16 R180
SYMATTR InstName M5
SYMATTR Value2 l=180n w=1.35u
SYMBOL cmosp 464 -16 M180
SYMATTR InstName M6
SYMATTR Value2 l=180n w=1.35u
SYMBOL cmosn 816 192 R0
SYMATTR InstName M7
SYMATTR Value2 l=180n w=270n
SYMBOL cmosn 560 192 M0
SYMATTR InstName M8
SYMATTR Value2 l=180n w=270n
SYMBOL cmosp 1280 -144 M180
SYMATTR InstName M9
SYMATTR Value2 l=720n w=40u
SYMBOL cmosn 1280 192 R0
SYMATTR InstName M1
SYMATTR Value2 l=180n w=2u
SYMBOL cap 1248 96 R90
WINDOW 0 0 32 VBottom 2
WINDOW 3 32 32 VTop 2
SYMATTR InstName C1
SYMATTR Value 0.1p
TEXT -144 720 Left 2 ;Fsw = 8MHz, So UGB = 800KHz, So BW of Error Amplifer >> 800KHz. I have taken it Gain cross over frequency of error amplifier to be 8MHz
TEXT 272 -448 Left 2 !.include tsmc018.lib
