Version 4
SHEET 1 2076 736
WIRE -48 -496 -160 -496
WIRE 160 -496 -48 -496
WIRE 432 -496 160 -496
WIRE 688 -496 432 -496
WIRE 944 -496 688 -496
WIRE 1040 -496 1040 -560
WIRE 1040 -496 944 -496
WIRE 1328 -496 1040 -496
WIRE 1760 -496 1328 -496
WIRE -160 -384 -160 -496
WIRE -48 -384 -48 -496
WIRE -48 -384 -80 -384
WIRE 688 -384 688 -496
WIRE 720 -384 688 -384
WIRE 1328 -384 1328 -496
WIRE 1360 -384 1328 -384
WIRE 1760 -384 1760 -496
WIRE 1792 -384 1760 -384
WIRE 48 -368 0 -368
WIRE 640 -368 48 -368
WIRE 1280 -368 640 -368
WIRE 1712 -368 1280 -368
WIRE -80 -336 -80 -384
WIRE -48 -336 -80 -336
WIRE 720 -336 720 -384
WIRE 720 -336 688 -336
WIRE 1360 -336 1360 -384
WIRE 1360 -336 1328 -336
WIRE 1792 -336 1792 -384
WIRE 1792 -336 1760 -336
WIRE 160 -304 160 -496
WIRE -48 -240 -48 -288
WIRE 48 -240 48 -368
WIRE 48 -240 -48 -240
WIRE 688 -112 688 -288
WIRE 688 -112 512 -112
WIRE 864 -112 688 -112
WIRE 704 -64 512 -64
WIRE 720 -64 704 -64
WIRE 864 -64 720 -64
WIRE 464 -32 368 -32
WIRE 1008 -32 912 -32
WIRE 1760 -32 1760 -288
WIRE 1952 -32 1760 -32
WIRE 512 16 512 -16
WIRE 864 16 864 -16
WIRE 704 32 704 -64
WIRE 704 32 560 32
WIRE 816 32 704 32
WIRE 432 64 432 -496
WIRE 512 64 432 64
WIRE 944 64 944 -496
WIRE 944 64 864 64
WIRE 1760 96 1760 -32
WIRE 1120 112 864 112
WIRE 1200 112 1120 112
WIRE 1328 112 1328 -288
WIRE 1328 112 1264 112
WIRE 1712 112 1328 112
WIRE 512 144 512 112
WIRE 640 144 512 144
WIRE 1792 144 1792 -336
WIRE 1792 144 1760 144
WIRE 160 192 160 -224
WIRE 512 192 512 144
WIRE 864 192 864 112
WIRE 1328 192 1328 112
WIRE -48 208 -48 -240
WIRE 512 240 480 240
WIRE 896 240 864 240
WIRE 1360 240 1328 240
WIRE -160 256 -160 -304
WIRE -112 256 -160 256
WIRE 640 272 640 144
WIRE 640 272 560 272
WIRE 816 272 640 272
WIRE 1120 272 1120 112
WIRE 1280 272 1120 272
WIRE 480 288 480 240
WIRE 512 288 480 288
WIRE 896 288 896 240
WIRE 896 288 864 288
WIRE 1360 288 1360 240
WIRE 1360 288 1328 288
WIRE -160 304 -160 256
WIRE -48 352 -48 304
WIRE -48 352 -96 352
WIRE -48 384 -48 352
WIRE -160 528 -160 400
WIRE -48 528 -48 464
WIRE -48 528 -160 528
WIRE 160 528 160 272
WIRE 160 528 -48 528
WIRE 512 528 512 288
WIRE 512 528 160 528
WIRE 720 528 720 -64
WIRE 720 528 512 528
WIRE 864 528 864 288
WIRE 864 528 720 528
WIRE 1040 528 864 528
WIRE 1328 528 1328 288
WIRE 1328 528 1040 528
WIRE 1760 528 1760 192
WIRE 1760 528 1328 528
WIRE 1040 592 1040 528
FLAG 368 -32 VINN
IOPIN 368 -32 In
FLAG 1008 -32 VINP
IOPIN 1008 -32 In
FLAG 1040 -560 VDDA
IOPIN 1040 -560 In
FLAG 1040 592 GNDA
IOPIN 1040 592 Out
FLAG 1952 -32 VOUT
IOPIN 1952 -32 Out
SYMBOL npn -96 304 M0
SYMATTR InstName Q1
SYMATTR Value 2N3904
SYMBOL res -32 368 M0
SYMATTR InstName R1
SYMATTR Value 1Meg
SYMBOL npn -112 208 R0
SYMATTR InstName Q2
SYMATTR Value 2N3904
SYMBOL cmosp 0 -288 R180
SYMATTR InstName M3
SYMATTR Value2 l=180n w=5u
SYMBOL res -144 -400 M0
SYMATTR InstName R2
SYMATTR Value 1Meg
SYMBOL cmosp 640 -288 M180
SYMATTR InstName M4
SYMATTR Value2 l=180n w=5u
SYMBOL cmosn 816 192 R0
SYMATTR InstName M7
SYMATTR Value2 l=360n w=1u
SYMBOL cmosn 560 192 M0
SYMATTR InstName M8
SYMATTR Value2 l=360n w=1u
SYMBOL cmosp 1280 -288 M180
SYMATTR InstName M9
SYMATTR Value2 l=180n w=5u
SYMBOL cap 1264 96 R90
WINDOW 0 0 32 VBottom 2
WINDOW 3 32 32 VTop 2
SYMATTR InstName C1
SYMATTR Value 100f
SYMBOL cmosp 1712 192 M180
SYMATTR InstName M2
SYMATTR Value2 l=180n w=5u
SYMBOL cmosp 1712 -288 M180
SYMATTR InstName M10
SYMATTR Value2 l=180n w=5u
SYMBOL cmosn 1280 192 R0
SYMATTR InstName M1
SYMATTR Value2 l=180n w=1u
SYMBOL cmosp 560 112 R180
SYMATTR InstName M11
SYMATTR Value2 l=180n w=5u
SYMBOL cmosp 816 112 M180
SYMATTR InstName M12
SYMATTR Value2 l=180n w=5u
SYMBOL cmosn 464 -112 R0
SYMATTR InstName M5
SYMATTR Value2 l=180n w=1u
SYMBOL cmosn 912 -112 M0
SYMATTR InstName M6
SYMATTR Value2 l=180n w=1u
SYMBOL res 144 -320 R0
SYMATTR InstName R3
SYMATTR Value 100k
SYMBOL res 144 176 R0
SYMATTR InstName R4
SYMATTR Value 1k
TEXT 256 704 Left 2 ;Fsw = 8MHz, So UGB = 800KHz, So BW of Error Amplifer >> 800KHz. I have taken it Gain cross over frequency of error amplifier to be 8MHz
TEXT 272 -592 Left 2 !.include tsmc018.lib
TEXT 1232 328 Left 2 ;Common Source Stage
TEXT 1648 216 Left 2 ;Common Drain Stage
TEXT 680 288 Left 2 ;P Input stage
