Version 4
SHEET 1 2636 960
WIRE 800 -256 480 -256
WIRE 1088 -256 800 -256
WIRE 1120 -256 1120 -320
WIRE 1120 -256 1088 -256
WIRE 1520 -256 1120 -256
WIRE 1856 -256 1520 -256
WIRE 2240 -256 1856 -256
WIRE 2448 -256 2240 -256
WIRE 480 -144 480 -256
WIRE 800 -144 800 -256
WIRE 800 -144 768 -144
WIRE 1088 -144 1088 -256
WIRE 1120 -144 1088 -144
WIRE 1856 -144 1856 -256
WIRE 1856 -144 1824 -144
WIRE 2240 -144 2240 -256
WIRE 2272 -144 2240 -144
WIRE 944 -128 848 -128
WIRE 1040 -128 944 -128
WIRE 2048 -128 1904 -128
WIRE 2192 -128 2048 -128
WIRE 768 -96 768 -144
WIRE 800 -96 768 -96
WIRE 1120 -96 1120 -144
WIRE 1120 -96 1088 -96
WIRE 1824 -96 1824 -144
WIRE 1856 -96 1824 -96
WIRE 2272 -96 2272 -144
WIRE 2272 -96 2240 -96
WIRE 800 -32 800 -48
WIRE 944 -32 944 -128
WIRE 944 -32 800 -32
WIRE 1856 -32 1856 -48
WIRE 2048 -32 2048 -128
WIRE 2048 -32 1856 -32
WIRE 2448 0 2448 -256
WIRE 1520 96 1520 -256
WIRE 1552 96 1520 96
WIRE 1088 112 1088 -48
WIRE 1472 112 1088 112
WIRE 1552 144 1552 96
WIRE 1552 144 1520 144
WIRE 2240 176 2240 -48
WIRE 2512 176 2240 176
WIRE 1088 240 1088 112
WIRE 1200 240 1088 240
WIRE 1328 240 1280 240
WIRE 1520 240 1520 192
WIRE 1520 240 1392 240
WIRE 1856 272 1856 -32
WIRE 2240 272 2240 176
WIRE 1888 320 1856 320
WIRE 2240 320 2208 320
WIRE 800 336 800 -32
WIRE 1088 336 1088 240
WIRE 1520 352 1520 240
WIRE 1808 352 1520 352
WIRE 2448 352 2448 80
WIRE 2448 352 2288 352
WIRE 1888 368 1888 320
WIRE 1888 368 1856 368
WIRE 2208 368 2208 320
WIRE 2240 368 2208 368
WIRE 832 384 800 384
WIRE 1088 384 1056 384
WIRE 752 416 672 416
WIRE 1216 416 1136 416
WIRE 1856 448 1856 368
WIRE 2048 448 1856 448
WIRE 2240 448 2240 368
WIRE 2240 448 2048 448
WIRE 2448 448 2448 352
WIRE 480 528 480 -64
WIRE 624 528 480 528
WIRE 800 528 800 432
WIRE 944 528 800 528
WIRE 1088 528 1088 432
WIRE 1088 528 944 528
WIRE 480 592 480 528
WIRE 944 592 944 528
WIRE 1520 592 1520 352
WIRE 2048 592 2048 448
WIRE 480 640 448 640
WIRE 976 640 944 640
WIRE 1552 640 1520 640
WIRE 2064 640 2048 640
WIRE 624 672 624 528
WIRE 624 672 528 672
WIRE 896 672 624 672
WIRE 1472 672 896 672
WIRE 2000 672 1472 672
WIRE 448 688 448 640
WIRE 480 688 448 688
WIRE 976 688 976 640
WIRE 976 688 944 688
WIRE 1552 688 1552 640
WIRE 1552 688 1520 688
WIRE 2064 688 2064 640
WIRE 2064 688 2048 688
WIRE 480 768 480 688
WIRE 832 768 832 384
WIRE 832 768 480 768
WIRE 944 768 944 688
WIRE 944 768 832 768
WIRE 1056 768 1056 384
WIRE 1056 768 944 768
WIRE 1120 768 1056 768
WIRE 1520 768 1520 688
WIRE 1520 768 1120 768
WIRE 2048 768 2048 688
WIRE 2048 768 1520 768
WIRE 2448 768 2448 528
WIRE 2448 768 2048 768
WIRE 1120 832 1120 768
FLAG 1120 -320 VDDA
IOPIN 1120 -320 In
FLAG 1120 832 GNDA
IOPIN 1120 832 Out
FLAG 2512 176 VOUT
IOPIN 2512 176 Out
FLAG 672 416 VINN
IOPIN 672 416 In
FLAG 1216 416 VINP
IOPIN 1216 416 In
SYMBOL cmosn 528 592 M0
SYMATTR InstName M1
SYMATTR Value2 l=180n w=1u
SYMBOL cmosn 896 592 R0
SYMATTR InstName M2
SYMATTR Value2 l=180n w=3u
SYMBOL cmosp 848 -48 R180
SYMATTR InstName M3
SYMATTR Value2 l=180n w=2u
SYMBOL cmosp 1040 -48 M180
SYMATTR InstName M4
SYMATTR Value2 l=180n w=2u
SYMBOL cmosn 752 336 R0
SYMATTR InstName M5
SYMATTR Value2 l=180n w=1u
SYMBOL cmosn 1136 336 M0
SYMATTR InstName M6
SYMATTR Value2 l=180n w=1u
SYMBOL cmosp 1472 192 M180
SYMATTR InstName M7
SYMATTR Value2 l=180n w=10u
SYMBOL cmosn 1472 592 R0
SYMATTR InstName M8
SYMATTR Value2 l=180n w=3u
SYMBOL cap 1392 224 R90
WINDOW 0 0 32 VBottom 2
WINDOW 3 32 32 VTop 2
SYMATTR InstName C1
SYMATTR Value 8f
SYMBOL res 1296 224 R90
WINDOW 0 0 56 VBottom 2
WINDOW 3 32 56 VTop 2
SYMATTR InstName R1
SYMATTR Value 18.5k
SYMBOL res 464 -160 R0
SYMATTR InstName R2
SYMATTR Value 400k
SYMBOL cmosp 2192 -48 M180
SYMATTR InstName M9
SYMATTR Value2 l=180n w=1u
SYMBOL cmosp 1904 -48 R180
SYMATTR InstName M10
SYMATTR Value2 l=180n w=1u
SYMBOL cmosn 2288 272 M0
SYMATTR InstName M11
SYMATTR Value2 l=180n w=270n
SYMBOL cmosn 1808 272 R0
SYMATTR InstName M12
SYMATTR Value2 l=180n w=270n
SYMBOL cmosn 2000 592 R0
SYMATTR InstName M13
SYMATTR Value2 l=720n w=2u
SYMBOL res 2432 -16 R0
SYMATTR InstName R5
SYMATTR Value 800k
SYMBOL res 2432 432 R0
SYMATTR InstName R6
SYMATTR Value 1Meg
TEXT 352 -352 Left 2 !.include tsmc018.lib
TEXT 1880 416 Left 2 ;Single Stage High Gain amplifier
