Version 4
SHEET 1 3600 736
WIRE 288 -336 176 -336
WIRE 464 -336 288 -336
WIRE 640 -336 464 -336
WIRE 864 -336 864 -400
WIRE 864 -336 640 -336
WIRE 1024 -336 864 -336
WIRE 1328 -336 1024 -336
WIRE 1600 -336 1328 -336
WIRE 2704 -336 2320 -336
WIRE 3264 -336 2704 -336
WIRE 2320 -224 2320 -336
WIRE 2320 -224 2288 -224
WIRE 2704 -224 2704 -336
WIRE 2736 -224 2704 -224
WIRE 3264 -224 3264 -336
WIRE 3296 -224 3264 -224
WIRE 2512 -208 2368 -208
WIRE 2656 -208 2512 -208
WIRE 3216 -208 3216 -240
WIRE 2288 -176 2288 -224
WIRE 2320 -176 2288 -176
WIRE 2736 -176 2736 -224
WIRE 2736 -176 2704 -176
WIRE 3296 -176 3296 -224
WIRE 3296 -176 3264 -176
WIRE 176 -128 176 -336
WIRE 288 -128 288 -336
WIRE 288 -128 256 -128
WIRE 464 -128 464 -336
WIRE 496 -128 464 -128
WIRE 640 -128 640 -336
WIRE 640 -128 608 -128
WIRE 1024 -128 1024 -336
WIRE 1056 -128 1024 -128
WIRE 1328 -128 1328 -336
WIRE 1360 -128 1328 -128
WIRE 1600 -128 1600 -336
WIRE 1632 -128 1600 -128
WIRE 384 -112 336 -112
WIRE 416 -112 384 -112
WIRE 832 -112 688 -112
WIRE 976 -112 832 -112
WIRE 1280 -112 1168 -112
WIRE 1552 -112 1280 -112
WIRE 2320 -112 2320 -128
WIRE 2512 -112 2512 -208
WIRE 2512 -112 2320 -112
WIRE 3120 -96 3088 -96
WIRE 3264 -96 3264 -128
WIRE 3264 -96 3120 -96
WIRE 3408 -96 3264 -96
WIRE 3440 -96 3408 -96
WIRE 256 -80 256 -128
WIRE 288 -80 256 -80
WIRE 496 -80 496 -128
WIRE 496 -80 464 -80
WIRE 608 -80 608 -128
WIRE 640 -80 608 -80
WIRE 1056 -80 1056 -128
WIRE 1056 -80 1024 -80
WIRE 1360 -80 1360 -128
WIRE 1360 -80 1328 -80
WIRE 1632 -80 1632 -128
WIRE 1632 -80 1600 -80
WIRE 3040 -80 2944 -80
WIRE 3584 -80 3488 -80
WIRE 2704 -64 2704 -128
WIRE 2768 -64 2704 -64
WIRE 2800 -64 2768 -64
WIRE 3120 -48 3120 -96
WIRE 3120 -48 3088 -48
WIRE 3408 -48 3408 -96
WIRE 3440 -48 3408 -48
WIRE 1328 -16 1328 -32
WIRE 1392 -16 1328 -16
WIRE 1424 -16 1392 -16
WIRE 288 0 288 -32
WIRE 384 0 384 -112
WIRE 384 0 288 0
WIRE 640 0 640 -32
WIRE 832 0 832 -112
WIRE 832 0 640 0
WIRE 1024 0 1024 -32
WIRE 1168 0 1168 -112
WIRE 1168 0 1024 0
WIRE 1328 0 1328 -16
WIRE 640 32 640 0
WIRE 640 80 608 80
WIRE 1328 112 1328 80
WIRE 1328 112 688 112
WIRE 608 128 608 80
WIRE 640 128 608 128
WIRE 1024 128 1024 0
WIRE 2320 128 2320 -112
WIRE 2704 128 2704 -64
WIRE 3440 128 3440 0
WIRE 3504 128 3440 128
WIRE 3552 128 3504 128
WIRE 1024 176 992 176
WIRE 1600 176 1600 -32
WIRE 1808 176 1600 176
WIRE 1904 176 1808 176
WIRE 2352 176 2320 176
WIRE 2704 176 2672 176
WIRE 3088 176 3088 0
WIRE 3264 176 3088 176
WIRE 1168 208 1072 208
WIRE 1328 208 1328 112
WIRE 1392 208 1328 208
WIRE 1424 208 1392 208
WIRE 2272 208 2176 208
WIRE 2848 208 2752 208
WIRE 3088 208 3088 176
WIRE 3440 208 3440 128
WIRE 288 224 288 0
WIRE 992 224 992 176
WIRE 1024 224 992 224
WIRE 1600 224 1600 176
WIRE 1808 224 1808 176
WIRE 2352 224 2352 176
WIRE 2352 224 2320 224
WIRE 2672 224 2672 176
WIRE 2704 224 2672 224
WIRE 3088 256 3056 256
WIRE 3472 256 3440 256
WIRE 176 272 176 -48
WIRE 224 272 176 272
WIRE 1808 272 1792 272
WIRE 1328 288 1328 208
WIRE 3264 288 3264 176
WIRE 3264 288 3136 288
WIRE 3392 288 3264 288
WIRE 640 304 640 128
WIRE 832 304 640 304
WIRE 1024 304 1024 224
WIRE 1024 304 832 304
WIRE 1920 304 1856 304
WIRE 2320 304 2320 224
WIRE 2512 304 2320 304
WIRE 2704 304 2704 224
WIRE 2704 304 2512 304
WIRE 3056 304 3056 256
WIRE 3088 304 3056 304
WIRE 3472 304 3472 256
WIRE 3472 304 3440 304
WIRE 176 320 176 272
WIRE 1792 320 1792 272
WIRE 1808 320 1792 320
WIRE 464 336 464 -32
WIRE 576 336 464 336
WIRE 464 352 464 336
WIRE 832 352 832 304
WIRE 2512 352 2512 304
WIRE 288 368 288 320
WIRE 288 368 240 368
WIRE 1920 384 1920 304
WIRE 288 400 288 368
WIRE 464 400 448 400
WIRE 848 400 832 400
WIRE 2528 400 2512 400
WIRE 576 432 576 336
WIRE 576 432 512 432
WIRE 784 432 576 432
WIRE 448 448 448 400
WIRE 464 448 448 448
WIRE 848 448 848 400
WIRE 848 448 832 448
WIRE 2528 448 2528 400
WIRE 2528 448 2512 448
WIRE 176 544 176 416
WIRE 288 544 288 480
WIRE 288 544 176 544
WIRE 464 544 464 448
WIRE 464 544 288 544
WIRE 832 544 832 448
WIRE 832 544 464 544
WIRE 880 544 832 544
WIRE 1328 544 1328 368
WIRE 1328 544 880 544
WIRE 1600 544 1600 288
WIRE 1600 544 1328 544
WIRE 1808 544 1808 320
WIRE 1808 544 1600 544
WIRE 1920 544 1920 464
WIRE 1920 544 1808 544
WIRE 2512 544 2512 448
WIRE 3088 544 3088 304
WIRE 3088 544 2512 544
WIRE 3440 544 3440 304
WIRE 3440 544 3088 544
WIRE 880 608 880 544
FLAG 1168 208 vref
IOPIN 1168 208 In
FLAG 864 -400 VDDA
IOPIN 864 -400 In
FLAG 880 608 GNDA
IOPIN 880 608 In
FLAG 1904 176 VOUT
IOPIN 1904 176 Out
FLAG 1392 -16 1v5
FLAG 1392 208 0v5
FLAG 2768 -64 pmos_gate
FLAG 3504 128 nmos_gate
SYMBOL cmosp 976 -32 M180
SYMATTR InstName M1
SYMATTR Value2 l=360n w=2.5u
SYMBOL cmosp 688 -32 R180
SYMATTR InstName M2
SYMATTR Value2 l=360n w=2.5u
SYMBOL cmosn 1072 128 M0
SYMATTR InstName M3
SYMATTR Value2 l=360n w=500n
SYMBOL cmosn 688 32 M0
SYMATTR InstName M4
SYMATTR Value2 l=360n w=500n
SYMBOL cmosn 784 352 R0
SYMATTR InstName M5
SYMATTR Value2 l=720n w=2u
SYMBOL cmosp 512 352 M0
SYMATTR InstName M6
SYMATTR Value2 l=720n w=2u
SYMBOL cmosp 416 -32 M180
SYMATTR InstName M7
SYMATTR Value2 l=360n w=2.5u
SYMBOL npn 240 320 M0
SYMATTR InstName Q1
SYMATTR Value 2N3904
SYMBOL res 304 384 M0
SYMATTR InstName R1
SYMATTR Value 1Meg
SYMBOL npn 224 224 R0
SYMATTR InstName Q2
SYMATTR Value 2N3904
SYMBOL cmosp 336 -32 R180
SYMATTR InstName M8
SYMATTR Value2 l=360n w=2.5u
SYMBOL res 192 -144 M0
SYMATTR InstName R2
SYMATTR Value 1Meg
SYMBOL cmosp 1280 -32 M180
SYMATTR InstName M9
SYMATTR Value2 l=180n w=3u
SYMBOL cmosp 1552 -32 M180
SYMATTR InstName M10
SYMATTR Value2 l=180n w=24u
SYMBOL cap 1584 224 R0
SYMATTR InstName C1
SYMATTR Value 1p
SYMBOL cmosp 1856 224 M0
SYMATTR InstName M11
SYMATTR Value2 l=720n w=2u
SYMBOL res 1904 368 R0
SYMATTR InstName R5
SYMATTR Value 1Meg
SYMBOL res 1312 -16 R0
SYMATTR InstName R3
SYMATTR Value 1Meg
SYMBOL res 1312 272 R0
SYMATTR InstName R4
SYMATTR Value 500k
SYMBOL cmosp 2656 -128 M180
SYMATTR InstName M12
SYMATTR Value2 l=180n w=1.35u
SYMBOL cmosp 2368 -128 R180
SYMATTR InstName M13
SYMATTR Value2 l=180n w=1.35u
SYMBOL cmosn 2752 128 M0
SYMATTR InstName M14
SYMATTR Value2 l=180n w=270n
SYMBOL cmosn 2272 128 R0
SYMATTR InstName M15
SYMATTR Value2 l=180n w=270n
SYMBOL cmosn 2464 352 R0
SYMATTR InstName M16
SYMATTR Value2 l=720n w=2u
SYMBOL cmosp 3216 -128 M180
SYMATTR InstName M17
SYMATTR Value2 l=720n w=10u
SYMBOL cmosp 3488 0 R180
SYMATTR InstName M18
SYMATTR Value2 l=180n w=1.35u
SYMBOL cmosp 3040 0 M180
SYMATTR InstName M19
SYMATTR Value2 l=180n w=1.35u
SYMBOL cmosn 3392 208 R0
SYMATTR InstName M20
SYMATTR Value2 l=180n w=270n
SYMBOL cmosn 3136 208 M0
SYMATTR InstName M21
SYMATTR Value2 l=180n w=270n
TEXT 656 272 Left 2 ;Single Stage High Gain amplifier
TEXT 312 -384 Left 2 !.include tsmc018.lib
TEXT 1648 8 Left 2 ;PMOS width = 8u, Length = 180n
TEXT 1648 40 Left 2 ;approx voltage swing =1 V
TEXT 1648 72 Left 2 ;Target Frequency = 8M, Time = 125n
TEXT 1648 104 Left 2 ;Calculated capacitor = 1p
TEXT 1832 352 Left 2 ;Discharge Transistor
TEXT 976 584 Left 2 ;There is also a need of 0.5V from bandgap reference.
TEXT 2352 272 Left 2 ;Single Stage High Gain amplifier
TEXT 1232 -392 Left 2 ;If the vref comes from bandgap reference, this can be a temperature compensated osc. (constant current operation)
