Version 4
SHEET 1 880 680
WIRE 288 -144 288 -192
WIRE 288 -144 64 -144
WIRE 512 -144 288 -144
WIRE 16 -16 -48 -16
WIRE 256 -16 96 -16
WIRE 528 -16 416 -16
WIRE 656 -16 608 -16
WIRE 512 96 512 -144
WIRE -48 112 -48 -16
WIRE -48 112 -80 112
WIRE 64 112 64 -144
WIRE 320 112 304 112
WIRE 416 112 416 -16
WIRE 416 112 400 112
WIRE 432 112 416 112
WIRE -48 144 -48 112
WIRE 0 144 -48 144
WIRE 656 144 656 -16
WIRE 656 144 592 144
WIRE 752 144 656 144
WIRE 256 176 256 -16
WIRE 256 176 176 176
WIRE 432 176 256 176
WIRE -48 208 -80 208
WIRE 0 208 -48 208
WIRE -48 272 -48 208
WIRE -48 416 -48 352
WIRE 64 416 64 240
WIRE 64 416 -48 416
WIRE 256 416 64 416
WIRE 512 416 512 192
WIRE 512 416 256 416
WIRE 256 464 256 416
FLAG 304 112 0
FLAG 288 -192 VDDA
IOPIN 288 -192 In
FLAG 256 464 GNDA
IOPIN 256 464 Out
FLAG -160 208 VINP
IOPIN -160 208 In
FLAG -160 112 VINN
IOPIN -160 112 In
FLAG 752 144 VOUT
IOPIN 752 144 Out
SYMBOL Error_Amplifier 80 192 R0
SYMATTR InstName X1
SYMBOL res -64 96 R90
WINDOW 0 0 56 VBottom 2
WINDOW 3 32 56 VTop 2
SYMATTR InstName R1
SYMATTR Value 200k
SYMBOL res 112 -32 R90
WINDOW 0 0 56 VBottom 2
WINDOW 3 32 56 VTop 2
SYMATTR InstName R2
SYMATTR Value 1Meg
SYMBOL res -64 192 R90
WINDOW 0 0 56 VBottom 2
WINDOW 3 32 56 VTop 2
SYMATTR InstName R3
SYMATTR Value 200k
SYMBOL res -64 256 R0
SYMATTR InstName R4
SYMATTR Value 1Meg
SYMBOL res 416 96 R90
WINDOW 0 0 56 VBottom 2
WINDOW 3 32 56 VTop 2
SYMATTR InstName R5
SYMATTR Value 100k
SYMBOL res 624 -32 R90
WINDOW 0 0 56 VBottom 2
WINDOW 3 32 56 VTop 2
SYMATTR InstName R6
SYMATTR Value 1Meg
SYMBOL Pmos_Error_Amplifier 512 160 R0
SYMATTR InstName X2
TEXT 112 256 Left 2 ;NMOS INPUT STAGE
TEXT 160 336 Left 2 ;Gain is around 43.2 V/V
