Version 4
SHEET 1 1636 1380
WIRE -320 -368 -464 -368
WIRE -128 -368 -240 -368
WIRE 192 -368 -128 -368
WIRE 240 -368 192 -368
WIRE -464 -336 -464 -368
WIRE -128 -336 -128 -368
WIRE -512 -320 -576 -320
WIRE 240 -304 240 -368
WIRE -512 -208 -512 -272
WIRE -464 -208 -464 -256
WIRE -128 -208 -128 -272
WIRE 240 -80 240 -224
WIRE 320 -80 240 -80
WIRE 464 -80 384 -80
WIRE 464 -48 464 -80
WIRE 240 80 240 -80
WIRE 240 80 144 80
WIRE 464 80 464 32
WIRE 240 128 240 80
WIRE 144 144 144 80
WIRE -256 192 -304 192
WIRE -48 192 -176 192
WIRE 64 192 16 192
WIRE -848 224 -848 144
WIRE 144 288 144 208
WIRE 240 288 240 208
WIRE 240 288 144 288
WIRE -80 352 -80 288
WIRE -848 368 -848 304
WIRE 64 384 64 192
WIRE 64 384 -16 384
WIRE 240 384 240 288
WIRE 240 384 64 384
WIRE -576 400 -576 -320
WIRE -304 416 -304 192
WIRE -304 416 -528 416
WIRE -192 416 -304 416
WIRE 240 416 240 384
WIRE 96 448 -16 448
WIRE 96 480 96 448
WIRE -576 576 -576 480
WIRE -528 576 -528 464
WIRE -80 576 -80 480
WIRE 96 576 96 560
WIRE 240 576 240 496
FLAG -464 -208 0
FLAG -512 -208 0
FLAG -576 576 0
FLAG -528 576 0
FLAG -80 576 0
FLAG -848 368 0
FLAG -848 144 vdd
FLAG -80 288 vdd
FLAG -128 -208 0
FLAG 240 576 0
FLAG 96 576 0
FLAG 192 -368 out
FLAG 464 80 0
SYMBOL e -464 -352 R0
SYMATTR InstName E1
SYMATTR Value 1.8
SYMBOL ind -336 -352 R270
WINDOW 0 32 56 VTop 2
WINDOW 3 5 56 VBottom 2
SYMATTR InstName L1
SYMATTR Value 0.24µ
SYMATTR SpiceLine Rser=32m
SYMBOL cap -144 -336 R0
SYMATTR InstName C1
SYMATTR Value 20µ
SYMBOL e -576 384 M0
SYMATTR InstName E2
SYMATTR Value 1
SYMBOL Error_Amplifier -96 432 M0
SYMATTR InstName X1
SYMBOL voltage -848 208 R0
WINDOW 123 0 0 Left 0
WINDOW 39 0 0 Left 0
SYMATTR InstName V1
SYMATTR Value 1.8
SYMBOL res 224 112 R0
SYMATTR InstName R1
SYMATTR Value 100k
SYMBOL res 224 400 R0
SYMATTR InstName R2
SYMATTR Value 100k
SYMBOL voltage 96 464 R0
WINDOW 123 0 0 Left 0
WINDOW 39 0 0 Left 0
SYMATTR InstName V2
SYMATTR Value 0.8
SYMBOL cap 384 -96 R90
WINDOW 0 0 32 VBottom 2
WINDOW 3 32 32 VTop 2
SYMATTR InstName C2
SYMATTR Value 1Meg
SYMBOL ind 224 -320 R0
SYMATTR InstName L2
SYMATTR Value 1Meg
SYMBOL voltage 464 -64 R0
WINDOW 123 24 124 Left 2
WINDOW 39 0 0 Left 0
SYMATTR Value2 AC 1
SYMATTR InstName V3
SYMATTR Value ""
SYMBOL cap 128 144 R0
SYMATTR InstName C3
SYMATTR Value 22.32p
SYMBOL res -160 176 R90
WINDOW 0 0 56 VBottom 2
WINDOW 3 32 56 VTop 2
SYMATTR InstName R3
SYMATTR Value 507
SYMBOL cap 16 176 R90
WINDOW 0 0 32 VBottom 2
WINDOW 3 32 32 VTop 2
SYMATTR InstName C4
SYMATTR Value 10p
TEXT -224 32 Left 2 !.ac dec 50 100 1G
