Version 4
SHEET 1 880 688
WIRE -16 -112 -16 -320
WIRE 16 -112 -16 -112
WIRE -64 -96 -224 -96
WIRE 16 -64 16 -112
WIRE 16 -64 -16 -64
WIRE 208 64 208 -80
WIRE 240 64 208 64
WIRE -16 80 -16 -16
WIRE 160 80 -16 80
WIRE 240 112 240 64
WIRE 240 112 208 112
WIRE -16 240 -16 80
WIRE -16 384 -16 304
WIRE 208 384 208 160
WIRE 208 384 -16 384
WIRE -16 560 -16 384
FLAG -224 -96 V1uA
IOPIN -224 -96 In
FLAG -16 560 GNDA
IOPIN -16 560 Out
FLAG -16 -320 VDDA
IOPIN -16 -320 In
FLAG 208 -80 VER
IOPIN 208 -80 BiDir
SYMBOL cmosp -64 -16 M180
SYMATTR InstName M1
SYMATTR Value2 l=180n w=1.1u
SYMBOL cap -32 240 R0
SYMATTR InstName C1
SYMATTR Value 55p
SYMBOL cmosp 160 160 M180
SYMATTR InstName M2
SYMATTR Value2 l=180n w=1m
