Version 4
SHEET 1 3940 848
WIRE 384 -224 384 -320
WIRE 576 -224 384 -224
WIRE 736 -224 576 -224
WIRE 1376 -224 736 -224
WIRE 2048 -224 1376 -224
WIRE 384 -128 384 -224
WIRE 416 -128 384 -128
WIRE 384 -112 384 -128
WIRE 336 -96 176 -96
WIRE 416 -64 416 -128
WIRE 416 -64 384 -64
WIRE 576 -32 576 -224
WIRE 2048 112 2048 -224
WIRE 736 128 736 -224
WIRE 1376 128 1376 -224
WIRE 1888 144 1808 144
WIRE 1968 144 1888 144
WIRE 384 160 384 -16
WIRE 384 160 304 160
WIRE 672 160 384 160
WIRE 1312 160 1216 160
WIRE 1968 176 1872 176
WIRE 2240 176 2128 176
WIRE 976 192 864 192
WIRE 1568 192 1504 192
WIRE 384 208 384 160
WIRE 384 208 240 208
WIRE 1968 208 1872 208
WIRE 576 224 576 48
WIRE 672 224 576 224
WIRE 1312 224 1216 224
WIRE 384 240 384 208
WIRE 240 416 240 208
WIRE 576 432 576 224
WIRE 256 464 240 464
WIRE 192 496 112 496
WIRE 256 512 256 464
WIRE 256 512 240 512
WIRE 240 656 240 512
WIRE 384 656 384 304
WIRE 384 656 240 656
WIRE 576 656 576 512
WIRE 576 656 384 656
WIRE 736 656 736 256
WIRE 736 656 576 656
WIRE 1376 656 1376 256
WIRE 1376 656 736 656
WIRE 2048 656 2048 240
WIRE 2048 656 1376 656
WIRE 384 720 384 656
FLAG 176 -96 V1uA
IOPIN 176 -96 In
FLAG 384 720 GNDA
IOPIN 384 720 Out
FLAG 384 -320 VDDA
IOPIN 384 -320 In
FLAG 1872 208 Select
FLAG 304 160 ramp
FLAG 1872 176 ramp
FLAG 1808 144 VER
IOPIN 1808 144 In
FLAG 2240 176 VSS_ER
IOPIN 2240 176 Out
FLAG 112 496 SS_REP
IOPIN 112 496 In
FLAG 1888 144 ver
FLAG 1216 224 ramp
FLAG 1216 160 ver
FLAG 1568 192 Select
FLAG 976 192 RESET
IOPIN 976 192 Out
SYMBOL cmosp 336 -16 M180
SYMATTR InstName M1
SYMATTR Value2 l=180n w=270n
SYMBOL cap 368 240 R0
SYMATTR InstName C1
SYMATTR Value 136p
SYMBOL Analog_Mux 2048 192 R0
SYMATTR InstName X1
SYMBOL cmosn 192 416 R0
SYMATTR InstName M9
SYMATTR Value2 l=180n w=1u
SYMBOL Comparator 1376 176 R0
SYMATTR InstName X2
SYMBOL Comparator 736 176 R0
SYMATTR InstName X3
SYMBOL res 560 -48 R0
SYMATTR InstName R1
SYMATTR Value 1.6Meg
SYMBOL res 560 416 R0
SYMATTR InstName R2
SYMATTR Value 200k
TEXT 2072 272 Left 2 ;ANALOG MUX
TEXT 1440 256 Left 2 ;COMPARATOR
TEXT 544 456 VLeft 2 ;0.2V = 0% Duty Cycle
