Version 4
SHEET 1 2516 848
WIRE -16 -224 -16 -320
WIRE 160 -224 -16 -224
WIRE 416 -224 160 -224
WIRE 608 -224 416 -224
WIRE 992 -224 608 -224
WIRE 1488 -224 992 -224
WIRE -16 -112 -16 -224
WIRE 16 -112 -16 -112
WIRE 160 -112 160 -224
WIRE 192 -112 160 -112
WIRE 608 -112 608 -224
WIRE 608 -112 576 -112
WIRE 992 -112 992 -224
WIRE 1024 -112 992 -112
WIRE -64 -96 -224 -96
WIRE 112 -96 -64 -96
WIRE 800 -96 656 -96
WIRE 944 -96 800 -96
WIRE 16 -64 16 -112
WIRE 16 -64 -16 -64
WIRE 192 -64 192 -112
WIRE 192 -64 160 -64
WIRE 576 -64 576 -112
WIRE 608 -64 576 -64
WIRE 1024 -64 1024 -112
WIRE 1024 -64 992 -64
WIRE 416 -32 416 -224
WIRE 800 0 800 -96
WIRE 992 0 992 -16
WIRE 992 0 800 0
WIRE 608 112 608 -16
WIRE 608 112 528 112
WIRE 1488 112 1488 -224
WIRE 1408 144 1312 144
WIRE -16 160 -16 -16
WIRE -16 160 -96 160
WIRE 1408 176 1312 176
WIRE 1680 176 1568 176
WIRE 1408 208 1312 208
WIRE -16 240 -16 160
WIRE 608 240 608 112
WIRE 992 240 992 0
WIRE 640 288 608 288
WIRE 992 288 960 288
WIRE 416 320 416 48
WIRE 560 320 416 320
WIRE 1136 320 1040 320
WIRE 640 336 640 288
WIRE 640 336 608 336
WIRE 960 336 960 288
WIRE 992 336 960 336
WIRE 416 400 416 320
WIRE 608 416 608 336
WIRE 800 416 608 416
WIRE 992 416 992 336
WIRE 992 416 800 416
WIRE 160 432 160 -16
WIRE 272 432 160 432
WIRE 160 464 160 432
WIRE 800 464 800 416
WIRE 160 512 144 512
WIRE 816 512 800 512
WIRE 272 544 272 432
WIRE 272 544 208 544
WIRE 752 544 272 544
WIRE 144 560 144 512
WIRE 160 560 144 560
WIRE 816 560 816 512
WIRE 816 560 800 560
WIRE -16 656 -16 304
WIRE 160 656 160 560
WIRE 160 656 -16 656
WIRE 416 656 416 480
WIRE 416 656 160 656
WIRE 800 656 800 560
WIRE 800 656 416 656
WIRE 1488 656 1488 240
WIRE 1488 656 800 656
WIRE -16 720 -16 656
FLAG -224 -96 V1uA
IOPIN -224 -96 In
FLAG -16 720 GNDA
IOPIN -16 720 Out
FLAG -16 -320 VDDA
IOPIN -16 -320 In
FLAG 528 112 Vselect
FLAG 1312 208 Vselect
FLAG -96 160 vramp
FLAG 1136 320 vramp
FLAG 1312 176 vramp
FLAG 1312 144 VER
IOPIN 1312 144 In
FLAG 1680 176 VSS_ER
IOPIN 1680 176 Out
SYMBOL cmosp -64 -16 M180
SYMATTR InstName M1
SYMATTR Value2 l=180n w=1.1u
SYMBOL cap -32 240 R0
SYMATTR InstName C1
SYMATTR Value 55p
SYMBOL cmosp 944 -16 M180
SYMATTR InstName M2
SYMATTR Value2 l=180n w=1u
SYMBOL cmosp 656 -16 R180
SYMATTR InstName M3
SYMATTR Value2 l=180n w=1u
SYMBOL cmosn 1040 240 M0
SYMATTR InstName M4
SYMATTR Value2 l=180n w=270n
SYMBOL cmosn 560 240 R0
SYMATTR InstName M5
SYMATTR Value2 l=180n w=270n
SYMBOL cmosn 752 464 R0
SYMATTR InstName M6
SYMATTR Value2 l=180n w=1u
SYMBOL cmosp 112 -16 M180
SYMATTR InstName M7
SYMATTR Value2 l=180n w=1.1u
SYMBOL cmosn 208 464 M0
SYMATTR InstName M8
SYMATTR Value2 l=180n w=1u
SYMBOL res 400 -48 R0
SYMATTR InstName R1
SYMATTR Value 800k
SYMBOL res 400 384 R0
SYMATTR InstName R2
SYMATTR Value 1Meg
SYMBOL Analog_Mux 1488 192 R0
SYMATTR InstName X1
TEXT 632 384 Left 2 ;Single Stage High Gain amplifier
TEXT 256 320 Left 2 ;Expecting 1V
TEXT 1592 216 Left 2 ;Voltage Soft_Start and Error Amplfier
