Version 4
SHEET 1 880 680
WIRE 256 80 -144 80
WIRE 256 112 256 80
WIRE -144 144 -144 80
WIRE 176 144 -48 144
WIRE 176 176 32 176
WIRE 416 176 336 176
WIRE 448 176 416 176
WIRE 176 208 128 208
WIRE -144 256 -144 224
WIRE -48 256 -48 224
WIRE 256 256 256 240
WIRE 128 272 128 208
WIRE 32 288 32 256
WIRE 128 384 128 352
FLAG -144 256 0
FLAG 256 256 0
FLAG -48 256 0
FLAG 32 288 0
FLAG 128 384 0
FLAG 416 176 out
SYMBOL Analog_Mux 256 192 R0
SYMATTR InstName X1
SYMBOL voltage -144 128 R0
WINDOW 3 -223 61 Left 2
WINDOW 123 0 0 Left 0
WINDOW 39 0 0 Left 0
SYMATTR InstName V1
SYMATTR Value PULSE(0 1.8 0 1n)
SYMBOL voltage -48 128 R0
WINDOW 123 0 0 Left 0
WINDOW 39 0 0 Left 0
SYMATTR InstName V2
SYMATTR Value SINE(0.9 0.9 1G)
SYMBOL voltage 32 160 R0
WINDOW 123 0 0 Left 0
WINDOW 39 0 0 Left 0
SYMATTR InstName V3
SYMATTR Value SINE(0.9 0.9 10Meg)
SYMBOL voltage 128 256 R0
WINDOW 123 0 0 Left 0
WINDOW 39 0 0 Left 0
SYMATTR InstName V4
SYMATTR Value PULSE(0 1.8 0 1n 1n 0.5u 1u)
TEXT 448 104 Left 2 !.tran 4u
