Version 4
SHEET 1 880 680
WIRE 176 96 0 96
WIRE 0 128 0 96
WIRE 176 144 176 96
WIRE 320 176 256 176
WIRE 336 176 320 176
WIRE 0 224 0 208
WIRE 176 224 176 208
FLAG 176 224 0
FLAG 0 224 0
FLAG 320 176 vref
SYMBOL Bandgap_Reference 160 176 R0
SYMATTR InstName X1
SYMBOL voltage 0 112 R0
WINDOW 3 24 96 Invisible 2
WINDOW 123 0 0 Left 0
WINDOW 39 0 0 Left 0
SYMATTR InstName V1
SYMATTR Value PULSE(0 1.8 0 1n)
TEXT 104 264 Left 2 !.tran 50u
TEXT 56 288 Left 2 !.step temp -40 125 1
TEXT -24 312 Left 2 !.meas TRAN vreference FIND V(vref) AT 49u
