Version 4
SHEET 1 880 680
WIRE 464 -48 368 -48
WIRE 464 0 464 -48
WIRE 464 112 464 80
WIRE 368 128 368 -48
WIRE 304 160 80 160
WIRE 544 192 496 192
WIRE 80 208 80 160
WIRE 304 224 192 224
WIRE 192 240 192 224
WIRE 80 336 80 288
WIRE 192 336 192 320
WIRE 368 336 368 256
FLAG 464 112 0
FLAG 368 336 0
FLAG 192 336 0
FLAG 544 192 Vout
FLAG 80 336 0
SYMBOL voltage 464 -16 R0
WINDOW 123 0 0 Left 0
WINDOW 39 0 0 Left 0
SYMATTR InstName V1
SYMATTR Value PULSE(0 1.8 0 1n)
SYMBOL voltage 192 224 R0
WINDOW 123 0 0 Left 0
WINDOW 39 0 0 Left 0
SYMATTR InstName V2
SYMATTR Value PULSE(0 1.8 0 124n 1n 0 125n)
SYMBOL Final_Project_Comparator_Rev1 368 176 R0
WINDOW 0 9 -131 Bottom 2
SYMATTR InstName X1
SYMBOL voltage 80 192 R0
WINDOW 123 0 0 Left 0
WINDOW 39 0 0 Left 0
SYMATTR InstName V3
SYMATTR Value PULSE(0 1.7 0 1n)
TEXT -96 360 Left 2 !.tran 0 25u 0 100p
TEXT -96 384 Left 2 !.include tsmc018.lib
