Version 4
SHEET 1 1284 680
WIRE -240 -208 -448 -208
WIRE 224 -208 -240 -208
WIRE -240 -80 -240 -208
WIRE -192 -80 -240 -80
WIRE -240 -64 -240 -80
WIRE 224 -32 224 -208
WIRE 144 0 80 0
WIRE 416 32 304 32
WIRE -240 48 -240 16
WIRE -192 48 -240 48
WIRE 144 64 80 64
WIRE -448 128 -448 -208
WIRE -240 128 -240 48
WIRE -448 256 -448 208
WIRE -240 256 -240 208
WIRE 224 256 224 96
FLAG -448 256 0
FLAG -240 256 0
FLAG -192 -80 vdd
FLAG -192 48 rdrop
FLAG 224 256 0
FLAG 80 0 vdd
FLAG 80 64 rdrop
FLAG 416 32 out
SYMBOL voltage -448 112 R0
WINDOW 123 0 0 Left 0
WINDOW 39 0 0 Left 0
SYMATTR InstName V1
SYMATTR Value PULSE(0 1.8 0 1n)
SYMBOL load2 -240 128 R0
WINDOW 123 0 0 Left 0
WINDOW 39 0 0 Left 0
SYMATTR InstName I1
SYMATTR Value PULSE(0 2 0 1u 1u 0 2u)
SYMBOL res -256 -80 R0
SYMATTR InstName R1
SYMATTR Value 10m
SYMBOL Current_Protection 224 32 R0
SYMATTR InstName X1
TEXT -376 -72 Left 2 !.tran 10u
TEXT -480 320 Left 2 ;First the stability is checked for the amplifiers and then only used for transient.
