Version 4
SHEET 1 880 680
WIRE 208 16 -208 16
WIRE 336 64 64 64
WIRE 208 112 208 16
WIRE -208 128 -208 16
WIRE 64 160 64 64
WIRE 128 160 64 160
WIRE 336 176 336 64
WIRE 336 176 304 176
WIRE 384 176 336 176
WIRE 416 176 384 176
WIRE 128 192 16 192
WIRE 16 208 16 192
WIRE -208 288 -208 208
WIRE 208 288 208 240
FLAG 208 288 0
FLAG -208 288 0
FLAG 16 288 0
FLAG 384 176 vout
SYMBOL Error_Amplifier 208 176 R0
SYMATTR InstName X1
SYMBOL voltage -208 112 R0
WINDOW 123 0 0 Left 0
WINDOW 39 0 0 Left 0
SYMATTR InstName V1
SYMATTR Value 1.8
SYMBOL voltage 16 192 R0
WINDOW 3 24 44 Left 2
WINDOW 123 24 72 Left 2
WINDOW 39 0 0 Left 0
SYMATTR Value PULSE(0.45 1.35 50n 1n 1n 60n 125n)
SYMATTR InstName V3
TEXT 96 320 Left 2 !;op
TEXT 96 352 Left 2 !.tran 0 2u 0 0.1n
