Version 4
SHEET 1 880 680
WIRE 208 16 -208 16
WIRE 208 112 208 16
WIRE -208 128 -208 16
WIRE 128 160 -80 160
WIRE -80 176 -80 160
WIRE 352 176 304 176
WIRE 384 176 352 176
WIRE 416 176 384 176
WIRE 128 192 16 192
WIRE 16 208 16 192
WIRE 352 208 352 176
WIRE -208 288 -208 208
WIRE -80 288 -80 256
WIRE 208 288 208 240
WIRE 352 288 352 272
FLAG 208 288 0
FLAG -208 288 0
FLAG 16 288 0
FLAG 384 176 vout
FLAG 352 288 0
FLAG -80 288 0
SYMBOL Error_Amplifier 208 176 R0
SYMATTR InstName X1
SYMBOL voltage -208 112 R0
WINDOW 123 0 0 Left 0
WINDOW 39 0 0 Left 0
SYMATTR InstName V1
SYMATTR Value 1.8
SYMBOL voltage 16 192 R0
WINDOW 3 24 44 Left 2
WINDOW 123 24 72 Left 2
WINDOW 39 0 0 Left 0
SYMATTR Value 0.8
SYMATTR Value2 AC 1
SYMATTR InstName V3
SYMBOL cap 336 208 R0
SYMATTR InstName C1
SYMATTR Value 2f
SYMBOL voltage -80 160 R0
WINDOW 123 0 0 Left 0
WINDOW 39 0 0 Left 0
SYMATTR InstName V2
SYMATTR Value 0.8
TEXT 288 32 Left 2 !.op
TEXT 288 64 Left 2 !.ac dec 20 100 1G
