Version 4
SHEET 1 880 680
WIRE 192 16 -208 16
WIRE 192 96 192 16
WIRE -208 128 -208 16
WIRE 128 128 -80 128
WIRE 352 160 304 160
WIRE -80 176 -80 128
WIRE 128 192 16 192
WIRE 16 208 16 192
WIRE 352 208 352 160
WIRE -208 288 -208 208
WIRE -80 288 -80 256
WIRE 192 288 192 224
WIRE 352 288 352 272
FLAG -208 288 0
FLAG 16 288 0
FLAG 352 160 vout
FLAG 352 288 0
FLAG -80 288 0
FLAG 192 288 0
SYMBOL Error_Amplifier 208 176 R0
SYMATTR InstName X1
SYMBOL voltage -208 112 R0
WINDOW 123 0 0 Left 0
WINDOW 39 0 0 Left 0
SYMATTR InstName V1
SYMATTR Value 1.8
SYMBOL voltage 16 192 R0
WINDOW 3 24 44 Left 2
WINDOW 123 24 72 Left 2
WINDOW 39 0 0 Left 0
SYMATTR Value {Vdc}
SYMATTR Value2 AC 1
SYMATTR InstName V3
SYMBOL cap 336 208 R0
SYMATTR InstName C1
SYMATTR Value 1.6f
SYMBOL voltage -80 160 R0
WINDOW 123 0 0 Left 0
WINDOW 39 0 0 Left 0
SYMATTR InstName V2
SYMATTR Value {Vdc}
TEXT 296 -56 Left 2 !.op
TEXT 296 -24 Left 2 !.ac dec 20 100 1G
TEXT 296 8 Left 2 !;step param Vdc 0.5 1 0.05
TEXT -72 344 Left 2 !.meas AC Loop_Gain_Angle FIND V(Vout) WHEN mag(V(Vout))=1
TEXT -72 376 Left 2 !.meas AC Gain_Margin FIND V(Vout) WHEN Ph(V(Vout))=pi
TEXT 296 40 Left 2 !.param Vdc 0.8
