Version 4
SHEET 1 880 680
WIRE 192 16 -208 16
WIRE 336 32 64 32
WIRE 192 96 192 16
WIRE -208 128 -208 16
WIRE 64 128 64 32
WIRE 128 128 64 128
WIRE 336 160 336 32
WIRE 336 160 304 160
WIRE 368 160 336 160
WIRE 384 160 368 160
WIRE 128 192 16 192
WIRE 16 208 16 192
WIRE -208 288 -208 208
WIRE 192 288 192 224
FLAG 192 288 0
FLAG -208 288 0
FLAG 16 288 0
FLAG 368 160 vout
SYMBOL Error_Amplifier 208 176 R0
SYMATTR InstName X1
SYMBOL voltage -208 112 R0
WINDOW 123 0 0 Left 0
SYMATTR InstName V1
SYMATTR Value PULSE(0 1.8 1n 1n)
SYMBOL voltage 16 192 R0
WINDOW 3 24 44 Left 2
WINDOW 123 24 72 Left 2
WINDOW 39 0 0 Left 0
SYMATTR Value PULSE(0 1.8 50n 1n 1n 62.5n 125n)
SYMATTR InstName V3
TEXT 56 320 Left 2 !.tran 0 10u 0 0.1n
