Version 4
SHEET 1 880 680
WIRE 336 -32 -64 -32
WIRE 336 48 336 -32
WIRE -64 80 -64 -32
WIRE 272 80 64 80
WIRE 496 112 448 112
WIRE 64 128 64 80
WIRE 272 144 160 144
WIRE 160 160 160 144
WIRE 496 160 496 112
WIRE -64 240 -64 160
WIRE 64 240 64 208
WIRE 336 240 336 176
WIRE 496 240 496 224
FLAG -64 240 0
FLAG 160 240 0
FLAG 496 112 vout
FLAG 496 240 0
FLAG 64 240 0
FLAG 336 240 0
SYMBOL voltage -64 64 R0
WINDOW 123 0 0 Left 0
WINDOW 39 0 0 Left 0
SYMATTR InstName V1
SYMATTR Value 1.8
SYMBOL voltage 160 144 R0
WINDOW 3 24 44 Left 2
WINDOW 123 24 72 Left 2
WINDOW 39 0 0 Left 0
SYMATTR Value {Vdc}
SYMATTR Value2 AC 1
SYMATTR InstName V2
SYMBOL cap 480 160 R0
SYMATTR InstName C1
SYMATTR Value 1.6f
SYMBOL voltage 64 112 R0
WINDOW 123 0 0 Left 0
WINDOW 39 0 0 Left 0
SYMATTR InstName V3
SYMATTR Value {Vdc}
SYMBOL Nmos_Error_Amplifier 352 128 R0
SYMATTR InstName X1
TEXT 440 -72 Left 2 !.ac dec 20 100 10G
TEXT 440 -40 Left 2 !;step param Vdc 0.5 1 0.05
TEXT 72 296 Left 2 !.meas AC Loop_Gain_Angle FIND V(Vout) WHEN mag(V(Vout))=1
TEXT 72 328 Left 2 !.meas AC Gain_Margin FIND V(Vout) WHEN Ph(V(Vout))=pi
TEXT 440 -8 Left 2 !.param Vdc=1.6
TEXT 72 360 Left 2 !;step param Rz 1k 25k 0.5k
