Version 4
SHEET 1 880 680
WIRE 96 160 64 160
WIRE 96 192 -64 192
WIRE 320 192 256 192
WIRE 352 192 320 192
WIRE -64 208 -64 192
WIRE 96 224 32 224
WIRE 32 256 32 224
WIRE -64 320 -64 288
WIRE 32 368 32 336
FLAG 64 160 0
FLAG -64 320 0
FLAG 32 368 0
FLAG 320 192 vout
SYMBOL Oscillator 176 192 R0
SYMATTR InstName X1
SYMBOL voltage -64 192 R0
WINDOW 3 24 96 Invisible 2
WINDOW 123 0 0 Left 0
WINDOW 39 0 0 Left 0
SYMATTR Value PULSE(0 1.8 0 1n)
SYMATTR InstName V1
SYMBOL voltage 32 240 R0
WINDOW 3 -95 116 Left 2
WINDOW 123 0 0 Left 0
WINDOW 39 0 0 Left 0
SYMATTR Value PULSE(0 0.5 1n 1u)
SYMATTR InstName V2
TEXT 128 312 Left 2 !.tran 0 20u 0 0.1n
