Version 4
SHEET 1 880 680
WIRE 256 0 -160 0
WIRE 256 96 256 0
WIRE -160 112 -160 0
WIRE 176 112 -32 112
WIRE 400 144 336 144
WIRE -32 160 -32 112
WIRE 176 176 64 176
WIRE 64 192 64 176
WIRE 400 192 400 144
WIRE -160 272 -160 192
WIRE -32 272 -32 240
WIRE 256 272 256 192
WIRE 400 272 400 256
FLAG -160 272 0
FLAG 64 272 0
FLAG 400 144 vout
FLAG 400 272 0
FLAG -32 272 0
FLAG 256 272 0
SYMBOL voltage -160 96 R0
WINDOW 123 0 0 Left 0
WINDOW 39 0 0 Left 0
SYMATTR InstName V1
SYMATTR Value 1.8
SYMBOL voltage 64 176 R0
WINDOW 3 24 44 Left 2
WINDOW 123 24 72 Left 2
WINDOW 39 0 0 Left 0
SYMATTR Value {Vdc}
SYMATTR Value2 AC 1
SYMATTR InstName V2
SYMBOL cap 384 192 R0
SYMATTR InstName C1
SYMATTR Value 1.6f
SYMBOL voltage -32 144 R0
WINDOW 123 0 0 Left 0
WINDOW 39 0 0 Left 0
SYMATTR InstName V3
SYMATTR Value {Vdc}
SYMBOL Pmos_Error_Amplifier 256 160 R0
SYMATTR InstName X1
TEXT 344 -72 Left 2 !.op
TEXT 344 -40 Left 2 !.ac dec 20 100 10G
TEXT 344 -8 Left 2 !;step param Vdc 0.5 1 0.05
TEXT -24 328 Left 2 !.meas AC Loop_Gain_Angle FIND V(Vout) WHEN mag(V(Vout))=1
TEXT -24 360 Left 2 !.meas AC Gain_Margin FIND V(Vout) WHEN Ph(V(Vout))=pi
TEXT 344 24 Left 2 !.param Vdc 0.8
TEXT -24 392 Left 2 !;step param Rz 1k 25k 0.5k
